@<TRIPOS>MOLECULE
4YC
   47    49     1     0     0
SMALL
No Charge or Current Charge


@<TRIPOS>ATOM
      1 C1          -5.9940     1.7070     0.1310 c3         1 4YC      -0.134100
      2 C2          -5.1080     0.4680     0.3820 c6         1 4YC       0.117300
      3 C3          -3.5840     0.7900     0.4230 c6         1 4YC       0.141800
      4 N4          -2.7360    -0.4470     0.4670 n3         1 4YC      -0.703600
      5 C5          -1.2800    -0.1290     0.6710 c3         1 4YC       0.085800
      6 C6          -0.2870    -1.2960     0.9660 c          1 4YC       0.609100
      7 C10          3.3080    -1.8610    -0.0330 c5         1 4YC      -0.013700
      8 C11          4.5310    -2.3160     0.8010 c3         1 4YC      -0.081100
      9 C12          3.4910    -2.3470    -1.4930 c3         1 4YC      -0.081100
     10 C13          3.1180    -0.3490     0.0090 ca         1 4YC      -0.113300
     11 C14          4.0880     0.6170    -0.3130 ca         1 4YC      -0.050000
     12 C15          3.7510     1.9800    -0.2260 ca         1 4YC      -0.112000
     13 C16          2.4580     2.3620     0.1770 ca         1 4YC       0.143000
     14 C19          1.8470     0.0280     0.4070 ca         1 4YC      -0.031000
     15 C21         -4.4640    -1.7820    -0.8390 c6         1 4YC       0.101600
     16 O7          -0.6900    -2.3620     1.4300 o          1 4YC      -0.569100
     17 N8           1.0820    -1.1540     0.6100 n          1 4YC      -0.221400
     18 C9           1.9370    -2.3710     0.5910 c5         1 4YC       0.097000
     19 C18          1.4910     1.3900     0.4930 ca         1 4YC      -0.151000
     20 C20         -2.9800    -1.3320    -0.7240 c6         1 4YC       0.138800
     21 N22         -5.3760    -0.5160    -0.7820 ny         1 4YC      -0.824000
     22 H23         -7.0560     1.4360     0.0920 hc         1 4YC       0.078367
     23 H25         -5.8730     2.4410     0.9370 hc         1 4YC       0.078367
     24 H24         -5.7370     2.2060    -0.8120 hc         1 4YC       0.078367
     25 H26         -5.4190    -0.0310     1.3090 hx         1 4YC       0.120700
     26 H27         -3.3240     1.3950    -0.4590 h1         1 4YC       0.073700
     27 H28         -3.3910     1.4180     1.3050 h1         1 4YC       0.073700
     28 H30         -0.9020     0.3830    -0.2230 h1         1 4YC       0.074700
     29 H29         -1.1750     0.5600     1.5180 h1         1 4YC       0.074700
     30 H35          4.6010    -3.4100     0.8380 hc         1 4YC       0.044700
     31 H33          5.4700    -1.9370     0.3820 hc         1 4YC       0.044700
     32 H34          4.4600    -1.9540     1.8340 hc         1 4YC       0.044700
     33 H37          2.6470    -2.0350    -2.1200 hc         1 4YC       0.044700
     34 H36          4.4040    -1.9360    -1.9400 hc         1 4YC       0.044700
     35 H38          3.5570    -3.4400    -1.5440 hc         1 4YC       0.044700
     36 H39          5.0850     0.3190    -0.6280 ha         1 4YC       0.134000
     37 H40          4.4890     2.7400    -0.4700 ha         1 4YC       0.144000
     38 H44         -4.6660    -2.3190    -1.7730 hx         1 4YC       0.110200
     39 H45         -4.7420    -2.4190     0.0080 hx         1 4YC       0.110200
     40 H32          1.4870    -3.1750    -0.0070 h1         1 4YC       0.072200
     41 H31          2.0760    -2.7490     1.6130 h1         1 4YC       0.072200
     42 H41          0.5150     1.7250     0.8160 ha         1 4YC       0.120000
     43 H43         -2.7000    -0.8100    -1.6510 h1         1 4YC       0.080200
     44 H42         -2.3580    -2.2380    -0.6730 h1         1 4YC       0.080200
     45 H47         -6.3750    -0.8130    -0.7670 hn         1 4YC       0.497500
     46 H46         -5.2780    -0.0020    -1.6820 hn         1 4YC       0.497500
     47 Cl1          2.0460     4.0680     0.2890 cl         1 4YC      -0.189000
@<TRIPOS>BOND
     1     1     2 1   
     2     1    22 1   
     3     1    23 1   
     4     1    24 1   
     5     2     3 1   
     6     2    21 1   
     7     2    25 1   
     8     3     4 1   
     9     3    26 1   
    10     3    27 1   
    11     4     5 1   
    12     4    20 1   
    13     5     6 1   
    14     5    28 1   
    15     5    29 1   
    16     6    16 2   
    17     6    17 1   
    18     7     8 1   
    19     7     9 1   
    20     7    10 1   
    21     7    18 1   
    22     8    30 1   
    23     8    31 1   
    24     8    32 1   
    25     9    33 1   
    26     9    34 1   
    27     9    35 1   
    28    10    11 ar  
    29    10    14 ar  
    30    11    12 ar  
    31    11    36 1   
    32    12    13 ar  
    33    12    37 1   
    34    13    19 ar  
    35    13    47 1   
    36    14    17 1   
    37    14    19 ar  
    38    15    20 1   
    39    15    21 1   
    40    15    38 1   
    41    15    39 1   
    42    17    18 1   
    43    18    40 1   
    44    18    41 1   
    45    19    42 1   
    46    20    43 1   
    47    20    44 1   
    48    21    45 1   
    49    21    46 1   
@<TRIPOS>SUBSTRUCTURE
     1 4YC         1 TEMP              0 ****  ****    0 ROOT
