@<TRIPOS>MOLECULE
4YC
   47    49     1     0     0
SMALL
bcc


@<TRIPOS>ATOM
      1 C1          -5.9390     1.4130     0.4340 c3         1 4YC      -0.134100
      2 C2          -4.9460     0.2730     0.3780 c6         1 4YC       0.145500
      3 C3          -3.5020     0.7420     0.3530 c6         1 4YC       0.141800
      4 N4          -2.5930    -0.3830     0.2550 n3         1 4YC      -0.703600
      5 C5          -1.2190     0.0130     0.4260 c3         1 4YC       0.085800
      6 C6          -0.3450    -1.1710     0.8050 c          1 4YC       0.676100
      7 C10          3.1570    -1.8520     0.0990 c5         1 4YC      -0.013700
      8 C11          4.4040    -2.3930     0.7850 c3         1 4YC      -0.081100
      9 C12          3.0580    -2.3880    -1.3340 c3         1 4YC      -0.081100
     10 C13          3.0870    -0.3470     0.0700 ca         1 4YC      -0.113300
     11 C14          4.0710     0.5640    -0.2480 ca         1 4YC      -0.068000
     12 C15          3.7830     1.9260    -0.2470 ca         1 4YC      -0.130000
     13 C16          2.5030     2.3330     0.0870 ca         1 4YC       0.051400
     14 C19          1.7970     0.0840     0.3820 ca         1 4YC       0.061600
     15 C21         -4.2220    -1.6620    -1.0110 c6         1 4YC       0.129800
     16 O7          -0.8230    -2.2230     1.1860 o          1 4YC      -0.569100
     17 N8           1.0040    -1.0320     0.6840 n          1 4YC      -0.381000
     18 C9           1.8820    -2.1900     0.8900 c5         1 4YC       0.097000
     19 C18          1.4910     1.4370     0.4160 ca         1 4YC      -0.169000
     20 C20         -2.8160    -1.1100    -0.9790 c6         1 4YC       0.138800
     21 N22         -5.1990    -0.5500    -0.8480 ny         1 4YC      -0.770000
     22 H23         -6.9640     1.0440     0.4410 hc         1 4YC       0.078367
     23 H25         -5.7860     1.9840     1.3480 hc         1 4YC       0.078367
     24 H24         -5.8170     2.0900    -0.4120 hc         1 4YC       0.078367
     25 H26         -5.0910    -0.4080     1.2180 hx         1 4YC       0.120700
     26 H27         -3.3680     1.4680    -0.4670 h1         1 4YC       0.073700
     27 H28         -3.3190     1.2760     1.2860 h1         1 4YC       0.073700
     28 H30         -0.8110     0.5190    -0.4630 h1         1 4YC       0.074700
     29 H29         -1.1680     0.7360     1.2470 h1         1 4YC       0.074700
     30 H35          4.3720    -3.4820     0.8330 hc         1 4YC       0.044700
     31 H33          5.3050    -2.1150     0.2370 hc         1 4YC       0.044700
     32 H34          4.4960    -2.0130     1.8030 hc         1 4YC       0.044700
     33 H37          2.1440    -2.0500    -1.8250 hc         1 4YC       0.044700
     34 H36          3.9050    -2.0470    -1.9320 hc         1 4YC       0.044700
     35 H38          3.0590    -3.4790    -1.3380 hc         1 4YC       0.044700
     36 H39          5.0710     0.2310    -0.5000 ha         1 4YC       0.152000
     37 H40          4.5450     2.6520    -0.4920 ha         1 4YC       0.162000
     38 H44         -4.4380    -2.1530    -1.9560 hx         1 4YC       0.110200
     39 H45         -4.3920    -2.3600    -0.1940 hx         1 4YC       0.110200
     40 H32          1.4030    -3.1020     0.5420 h1         1 4YC       0.072200
     41 H31          2.0960    -2.3010     1.9570 h1         1 4YC       0.072200
     42 H41          0.5270     1.8190     0.7100 ha         1 4YC       0.138000
     43 H43         -2.6420    -0.4800    -1.8670 h1         1 4YC       0.080200
     44 H42         -2.1350    -1.9570    -1.0480 h1         1 4YC       0.080200
     45 H47         -6.1460    -0.9300    -0.8200 hn         1 4YC       0.442300
     46 H46         -5.1720     0.0480    -1.6770 hn         1 4YC       0.442300
     47 CL1          2.1360     4.0280     0.1220 cl         1 4YC      -0.097400
@<TRIPOS>BOND
     1     1     2 1   
     2     1    22 1   
     3     1    23 1   
     4     1    24 1   
     5     2     3 1   
     6     2    21 1   
     7     2    25 1   
     8     3     4 1   
     9     3    26 1   
    10     3    27 1   
    11     4     5 1   
    12     4    20 1   
    13     5     6 1   
    14     5    28 1   
    15     5    29 1   
    16     6    16 2   
    17     6    17 1   
    18     7     8 1   
    19     7     9 1   
    20     7    10 1   
    21     7    18 1   
    22     8    30 1   
    23     8    31 1   
    24     8    32 1   
    25     9    33 1   
    26     9    34 1   
    27     9    35 1   
    28    10    11 ar  
    29    10    14 ar  
    30    11    12 ar  
    31    11    36 1   
    32    12    13 ar  
    33    12    37 1   
    34    13    19 ar  
    35    13    47 1   
    36    14    17 1   
    37    14    19 ar  
    38    15    20 1   
    39    15    21 1   
    40    15    38 1   
    41    15    39 1   
    42    17    18 1   
    43    18    40 1   
    44    18    41 1   
    45    19    42 1   
    46    20    43 1   
    47    20    44 1   
    48    21    45 1   
    49    21    46 1   
@<TRIPOS>SUBSTRUCTURE
     1 4YC         1 TEMP              0 ****  ****    0 ROOT
