@<TRIPOS>MOLECULE
4YD
   37    38     1     0     0
SMALL
abcg2


@<TRIPOS>ATOM
      1 C1          -4.5740     1.6080     0.5370 c3         1 4YD      -0.134100
      2 C2          -3.5100     0.5320     0.5240 c6         1 4YD       0.117300
      3 C3          -2.1610     1.0360     0.0430 c6         1 4YD       0.137800
      4 N4          -1.1830    -0.0320     0.0200 n3         1 4YD      -0.698600
      5 C5           0.1470     0.4650    -0.2320 c3         1 4YD       0.082800
      6 C6           1.2310    -0.5120     0.2020 c          1 4YD       0.604100
      7 C10          4.3880     1.1230    -0.6110 c5         1 4YD      -0.093400
      8 C11          4.7870     0.1130     0.4600 c5         1 4YD      -0.093400
      9 C12          3.6360    -0.8860     0.4430 c5         1 4YD       0.097000
     10 C13         -1.5950    -1.0560    -0.9210 c6         1 4YD       0.138800
     11 C14         -2.9090    -1.6610    -0.4850 c6         1 4YD       0.101600
     12 O7           0.9740    -1.6210     0.6550 o          1 4YD      -0.598100
     13 N8           2.4880    -0.0730     0.0510 n          1 4YD      -0.410800
     14 C9           2.8810     1.2520    -0.4220 c5         1 4YD       0.097000
     15 N15         -3.9400    -0.5940    -0.3660 ny         1 4YD      -0.824000
     16 H16         -5.5310     1.2190     0.8820 hc         1 4YD       0.078033
     17 H18         -4.2740     2.4010     1.2210 hc         1 4YD       0.078033
     18 H17         -4.7120     2.0500    -0.4500 hc         1 4YD       0.078033
     19 H19         -3.4000     0.0900     1.5150 hx         1 4YD       0.119700
     20 H20         -2.2820     1.5180    -0.9430 h1         1 4YD       0.070200
     21 H21         -1.8380     1.8120     0.7380 h1         1 4YD       0.070200
     22 H23          0.3030     0.7320    -1.2910 h1         1 4YD       0.063700
     23 H22          0.2830     1.3940     0.3310 h1         1 4YD       0.063700
     24 H26          4.6090     0.7300    -1.6060 hc         1 4YD       0.064200
     25 H28          5.7470    -0.3620     0.2670 hc         1 4YD       0.064200
     26 H29          4.8450     0.6020     1.4350 hc         1 4YD       0.064200
     27 H30          3.8060    -1.6810    -0.2890 h1         1 4YD       0.053450
     28 H31          3.4720    -1.3570     1.4120 h1         1 4YD       0.053450
     29 H33         -1.6890    -0.6590    -1.9460 h1         1 4YD       0.083200
     30 H32         -0.8620    -1.8580    -0.9520 h1         1 4YD       0.083200
     31 H34         -3.2730    -2.3920    -1.2030 hx         1 4YD       0.110200
     32 H35         -2.8230    -2.1300     0.4930 hx         1 4YD       0.110200
     33 H25          2.6460     2.0160     0.3260 h1         1 4YD       0.053450
     34 H24          2.3690     1.5210    -1.3460 h1         1 4YD       0.053450
     35 H37         -4.8110    -0.9970    -0.0160 hn         1 4YD       0.497500
     36 H36         -4.1640    -0.2330    -1.2970 hn         1 4YD       0.497500
     37 H27          4.8950     2.0820    -0.5120 hc         1 4YD       0.064200
@<TRIPOS>BOND
     1     1     2 1   
     2     1    16 1   
     3     1    17 1   
     4     1    18 1   
     5     2     3 1   
     6     2    15 1   
     7     2    19 1   
     8     3     4 1   
     9     3    20 1   
    10     3    21 1   
    11     4     5 1   
    12     4    10 1   
    13     5     6 1   
    14     5    22 1   
    15     5    23 1   
    16     6    12 2   
    17     6    13 1   
    18     7     8 1   
    19     7    14 1   
    20     7    24 1   
    21     7    37 1   
    22     8     9 1   
    23     8    25 1   
    24     8    26 1   
    25     9    13 1   
    26     9    27 1   
    27     9    28 1   
    28    10    11 1   
    29    10    29 1   
    30    10    30 1   
    31    11    15 1   
    32    11    31 1   
    33    11    32 1   
    34    13    14 1   
    35    14    33 1   
    36    14    34 1   
    37    15    35 1   
    38    15    36 1   
@<TRIPOS>SUBSTRUCTURE
     1 4YD         1 TEMP              0 ****  ****    0 ROOT
