@<TRIPOS>MOLECULE
4YD
   37    38     1     0     0
SMALL
No Charge or Current Charge


@<TRIPOS>ATOM
      1 C1          -4.7550     1.6870     0.3570 c3         1 4YD      -0.134100
      2 C2          -3.6890     0.5850     0.5430 c6         1 4YD       0.117300
      3 C3          -2.2430     1.0550     0.2030 c6         1 4YD       0.137800
      4 N4          -1.2560    -0.0750     0.1980 n3         1 4YD      -0.698600
      5 C5           0.1580     0.4090     0.0320 c3         1 4YD       0.082800
      6 C6           1.3460    -0.5740     0.3080 c          1 4YD       0.604100
      7 C10          4.4750     1.1420    -0.7350 c5         1 4YD      -0.093400
      8 C11          4.9770     0.1570     0.3500 c5         1 4YD      -0.093400
      9 C12          3.8600    -0.9170     0.3420 c5         1 4YD       0.097000
     10 C13         -1.6340    -1.1340    -0.8010 c6         1 4YD       0.138800
     11 C14         -3.0400    -1.7380    -0.5300 c6         1 4YD       0.101600
     12 O7           1.1750    -1.7240     0.7060 o          1 4YD      -0.598100
     13 N8           2.6570    -0.0930     0.0940 n          1 4YD      -0.410800
     14 C9           2.9740     1.2760    -0.3710 c5         1 4YD       0.097000
     15 N15         -4.0710    -0.5720    -0.4130 ny         1 4YD      -0.824000
     16 H16         -5.7590     1.3120     0.5880 hc         1 4YD       0.078033
     17 H18         -4.5600     2.5330     1.0270 hc         1 4YD       0.078033
     18 H17         -4.7650     2.0730    -0.6700 hc         1 4YD       0.078033
     19 H19         -3.7350     0.1910     1.5660 hx         1 4YD       0.119700
     20 H20         -2.2510     1.5540    -0.7770 h1         1 4YD       0.070200
     21 H21         -1.9490     1.8150     0.9420 h1         1 4YD       0.070200
     22 H23          0.2930     0.7890    -0.9890 h1         1 4YD       0.063700
     23 H22          0.3300     1.2600     0.7040 h1         1 4YD       0.063700
     24 H26          4.6010     0.7200    -1.7400 hc         1 4YD       0.064200
     25 H28          5.9640    -0.2620     0.1240 hc         1 4YD       0.064200
     26 H29          5.0450     0.6480     1.3290 hc         1 4YD       0.064200
     27 H30          4.0030    -1.6430    -0.4700 h1         1 4YD       0.053450
     28 H31          3.8080    -1.4610     1.2940 h1         1 4YD       0.053450
     29 H33         -1.6230    -0.7180    -1.8200 h1         1 4YD       0.083200
     30 H32         -0.9080    -1.9600    -0.7950 h1         1 4YD       0.083200
     31 H34         -3.3650    -2.4150    -1.3290 hx         1 4YD       0.110200
     32 H35         -3.0520    -2.2770     0.4230 hx         1 4YD       0.110200
     33 H25          2.8190     2.0040     0.4370 h1         1 4YD       0.053450
     34 H24          2.3770     1.5820    -1.2400 h1         1 4YD       0.053450
     35 H37         -4.9990    -0.9590    -0.1400 hn         1 4YD       0.497500
     36 H36         -4.2290    -0.1790    -1.3640 hn         1 4YD       0.497500
     37 H27          4.9990     2.1040    -0.7150 hc         1 4YD       0.064200
@<TRIPOS>BOND
     1     1     2 1   
     2     1    16 1   
     3     1    17 1   
     4     1    18 1   
     5     2     3 1   
     6     2    15 1   
     7     2    19 1   
     8     3     4 1   
     9     3    20 1   
    10     3    21 1   
    11     4     5 1   
    12     4    10 1   
    13     5     6 1   
    14     5    22 1   
    15     5    23 1   
    16     6    12 2   
    17     6    13 1   
    18     7     8 1   
    19     7    14 1   
    20     7    24 1   
    21     7    37 1   
    22     8     9 1   
    23     8    25 1   
    24     8    26 1   
    25     9    13 1   
    26     9    27 1   
    27     9    28 1   
    28    10    11 1   
    29    10    29 1   
    30    10    30 1   
    31    11    15 1   
    32    11    31 1   
    33    11    32 1   
    34    13    14 1   
    35    14    33 1   
    36    14    34 1   
    37    15    35 1   
    38    15    36 1   
@<TRIPOS>SUBSTRUCTURE
     1 4YD         1 TEMP              0 ****  ****    0 ROOT
