@<TRIPOS>MOLECULE
4YE
   41    43     1     0     0
SMALL
bcc


@<TRIPOS>ATOM
      1 C1          -5.2600     1.7820     0.5810 c3         1 4YE      -0.133100
      2 C2          -4.3040     0.6130     0.4800 c6         1 4YE       0.144500
      3 C3          -2.8510     1.0410     0.3780 c6         1 4YE       0.140800
      4 N4          -1.9790    -0.1080     0.2410 n3         1 4YE      -0.702600
      5 C5          -0.5880     0.2570     0.3340 c3         1 4YE       0.085800
      6 C6           0.2810    -0.9450     0.6670 c          1 4YE       0.674100
      7 C10          3.7400    -1.6740    -0.1630 c5         1 4YE      -0.045100
      8 C11          3.6900    -0.1770    -0.2300 ca         1 4YE      -0.118300
      9 C12          4.6780     0.7150    -0.5920 ca         1 4YE      -0.078000
     10 C13          4.4040     2.0800    -0.5770 ca         1 4YE      -0.134000
     11 C14          3.1500     2.5260    -0.1890 ca         1 4YE      -0.100000
     12 C15          2.1460     1.6340     0.1830 ca         1 4YE      -0.169000
     13 C16          2.4200     0.2730     0.1390 ca         1 4YE       0.048600
     14 O7          -0.2010    -1.9890     1.0690 o          1 4YE      -0.574100
     15 N8           1.6220    -0.8320     0.4800 n          1 4YE      -0.381000
     16 C9           2.4750    -2.0210     0.6250 c5         1 4YE       0.097000
     17 C17         -2.2850    -0.8370    -0.9740 c6         1 4YE       0.138800
     18 C18         -3.7060    -1.3480    -0.9300 c6         1 4YE       0.129800
     19 N19         -4.6410    -0.2070    -0.7270 ny         1 4YE      -0.770000
     20 H20         -6.2950     1.4440     0.6350 hc         1 4YE       0.077700
     21 H22         -5.0490     2.3460     1.4880 hc         1 4YE       0.077700
     22 H21         -5.1570     2.4560    -0.2690 hc         1 4YE       0.077700
     23 H23         -4.4260    -0.0600     1.3300 hx         1 4YE       0.120700
     24 H24         -2.7400     1.7600    -0.4520 h1         1 4YE       0.072700
     25 H25         -2.6030     1.5730     1.2980 h1         1 4YE       0.072700
     26 H27         -0.2200     0.7490    -0.5790 h1         1 4YE       0.073200
     27 H26         -0.4760     0.9830     1.1450 h1         1 4YE       0.073200
     28 H31          4.6380    -2.0470     0.3250 hc         1 4YE       0.071200
     29 H32          5.6580     0.3550    -0.8790 ha         1 4YE       0.147000
     30 H33          5.1710     2.7910    -0.8560 ha         1 4YE       0.147000
     31 H34          2.9400     3.5870    -0.1550 ha         1 4YE       0.138000
     32 H35          1.2000     2.0300     0.5150 ha         1 4YE       0.122000
     33 H28          1.9660    -2.9010     0.2420 h1         1 4YE       0.069200
     34 H29          2.6970    -2.1890     1.6810 h1         1 4YE       0.069200
     35 H37         -2.1390    -0.2180    -1.8750 h1         1 4YE       0.080200
     36 H36         -1.6320    -1.7030    -1.0690 h1         1 4YE       0.080200
     37 H38         -3.9840    -1.8390    -1.8580 hx         1 4YE       0.110200
     38 H39         -3.8550    -2.0340    -0.0990 hx         1 4YE       0.110200
     39 H41         -5.5960    -0.5600    -0.6500 hn         1 4YE       0.442300
     40 H40         -4.6380     0.3860    -1.5600 hn         1 4YE       0.442300
     41 H30          3.7100    -2.1050    -1.1670 hc         1 4YE       0.071200
@<TRIPOS>BOND
     1     1     2 1   
     2     1    20 1   
     3     1    21 1   
     4     1    22 1   
     5     2     3 1   
     6     2    19 1   
     7     2    23 1   
     8     3     4 1   
     9     3    24 1   
    10     3    25 1   
    11     4     5 1   
    12     4    17 1   
    13     5     6 1   
    14     5    26 1   
    15     5    27 1   
    16     6    14 2   
    17     6    15 1   
    18     7     8 1   
    19     7    16 1   
    20     7    28 1   
    21     7    41 1   
    22     8     9 ar  
    23     8    13 ar  
    24     9    10 ar  
    25     9    29 1   
    26    10    11 ar  
    27    10    30 1   
    28    11    12 ar  
    29    11    31 1   
    30    12    13 ar  
    31    12    32 1   
    32    13    15 1   
    33    15    16 1   
    34    16    33 1   
    35    16    34 1   
    36    17    18 1   
    37    17    35 1   
    38    17    36 1   
    39    18    19 1   
    40    18    37 1   
    41    18    38 1   
    42    19    39 1   
    43    19    40 1   
@<TRIPOS>SUBSTRUCTURE
     1 4YE         1 TEMP              0 ****  ****    0 ROOT
