@<TRIPOS>MOLECULE
4YE
   41    43     1     0     0
SMALL
No Charge or Current Charge


@<TRIPOS>ATOM
      1 C1          -5.3100     2.0180     0.2980 c3         1 4YE      -0.133100
      2 C2          -4.4280     0.7630     0.4810 c6         1 4YE       0.116300
      3 C3          -2.9000     1.0660     0.4420 c6         1 4YE       0.140800
      4 N4          -2.0670    -0.1810     0.4210 n3         1 4YE      -0.702600
      5 C5          -0.5970     0.1160     0.5480 c3         1 4YE       0.085800
      6 C6           0.3960    -1.0650     0.7780 c          1 4YE       0.607100
      7 C10          3.9580    -1.6220    -0.3030 c5         1 4YE      -0.045100
      8 C11          3.7780    -0.1170    -0.2590 ca         1 4YE      -0.118300
      9 C12          4.7500     0.8390    -0.5940 ca         1 4YE      -0.060000
     10 C13          4.4230     2.2050    -0.4970 ca         1 4YE      -0.116000
     11 C14          3.1380     2.5960    -0.0690 ca         1 4YE      -0.082000
     12 C15          2.1720     1.6260     0.2610 ca         1 4YE      -0.151000
     13 C16          2.5180     0.2620     0.1630 ca         1 4YE      -0.044000
     14 O7           0.0000    -2.1400     1.2270 o          1 4YE      -0.574100
     15 N8           1.7560    -0.9230     0.3830 n          1 4YE      -0.221400
     16 C9           2.6040    -2.1460     0.3200 c5         1 4YE       0.097000
     17 C17         -2.3880    -1.0440    -0.7680 c6         1 4YE       0.138800
     18 C18         -3.8810    -1.4750    -0.8080 c6         1 4YE       0.101600
     19 N19         -4.7720    -0.1990    -0.6820 ny         1 4YE      -0.824000
     20 H20         -6.3760     1.7600     0.3140 hc         1 4YE       0.077700
     21 H22         -5.1350     2.7370     1.1070 hc         1 4YE       0.077700
     22 H21         -5.0990     2.5270    -0.6500 hc         1 4YE       0.077700
     23 H23         -4.6940     0.2540     1.4160 hx         1 4YE       0.120700
     24 H24         -2.6810     1.6810    -0.4440 h1         1 4YE       0.072700
     25 H25         -2.6500     1.6780     1.3220 h1         1 4YE       0.072700
     26 H27         -0.2620     0.6340    -0.3590 h1         1 4YE       0.073200
     27 H26         -0.4380     0.7940     1.3960 h1         1 4YE       0.073200
     28 H31          4.8270    -1.9610     0.2720 hc         1 4YE       0.071200
     29 H32          5.7400     0.5310    -0.9240 ha         1 4YE       0.129000
     30 H33          5.1640     2.9590    -0.7520 ha         1 4YE       0.129000
     31 H34          2.8930     3.6530     0.0080 ha         1 4YE       0.120000
     32 H35          1.2020     1.9650     0.6030 ha         1 4YE       0.104000
     33 H28          2.1480    -2.9270    -0.3030 h1         1 4YE       0.069200
     34 H29          2.7630    -2.5560     1.3260 h1         1 4YE       0.069200
     35 H37         -2.1530    -0.5110    -1.7010 h1         1 4YE       0.080200
     36 H36         -1.7760    -1.9580    -0.7660 h1         1 4YE       0.080200
     37 H38         -4.1410    -1.9940    -1.7380 hx         1 4YE       0.110200
     38 H39         -4.1200    -2.1210     0.0430 hx         1 4YE       0.110200
     39 H41         -5.7720    -0.4830    -0.6150 hn         1 4YE       0.497500
     40 H40         -4.7170     0.3280    -1.5770 hn         1 4YE       0.497500
     41 H30          4.0860    -1.9790    -1.3310 hc         1 4YE       0.071200
@<TRIPOS>BOND
     1     1     2 1   
     2     1    20 1   
     3     1    21 1   
     4     1    22 1   
     5     2     3 1   
     6     2    19 1   
     7     2    23 1   
     8     3     4 1   
     9     3    24 1   
    10     3    25 1   
    11     4     5 1   
    12     4    17 1   
    13     5     6 1   
    14     5    26 1   
    15     5    27 1   
    16     6    14 2   
    17     6    15 1   
    18     7     8 1   
    19     7    16 1   
    20     7    28 1   
    21     7    41 1   
    22     8     9 ar  
    23     8    13 ar  
    24     9    10 ar  
    25     9    29 1   
    26    10    11 ar  
    27    10    30 1   
    28    11    12 ar  
    29    11    31 1   
    30    12    13 ar  
    31    12    32 1   
    32    13    15 1   
    33    15    16 1   
    34    16    33 1   
    35    16    34 1   
    36    17    18 1   
    37    17    35 1   
    38    17    36 1   
    39    18    19 1   
    40    18    37 1   
    41    18    38 1   
    42    19    39 1   
    43    19    40 1   
@<TRIPOS>SUBSTRUCTURE
     1 4YE         1 TEMP              0 ****  ****    0 ROOT
