@<TRIPOS>MOLECULE
4YF
   40    42     1     0     0
SMALL
No Charge or Current Charge


@<TRIPOS>ATOM
      1 C1          -5.2490     2.4270     0.4670 c3         1 4YF      -0.133100
      2 C2          -4.5990     1.0280     0.5370 c6         1 4YF       0.116300
      3 C3          -3.0420     1.0620     0.4910 c6         1 4YF       0.140800
      4 N4          -2.4410    -0.3070     0.3590 n3         1 4YF      -0.708600
      5 C5          -0.9410    -0.2820     0.4830 c3         1 4YF       0.087800
      6 C6          -0.1670    -1.6290     0.6250 c          1 4YF       0.611100
      7 C10          3.3550    -2.6590    -0.2420 c5         1 4YF      -0.036100
      8 C11          3.3800    -1.1450    -0.1390 ca         1 4YF      -0.181300
      9 C12          4.4850    -0.3030    -0.3500 ca         1 4YF       0.399900
     10 C14          3.1890     1.5610     0.1050 ca         1 4YF       0.472000
     11 C16          2.0370     0.7840     0.3290 ca         1 4YF      -0.213000
     12 C19         -4.4610    -1.1640    -0.9280 c6         1 4YF       0.101600
     13 O7          -0.7560    -2.6620     0.9410 o          1 4YF      -0.559100
     14 N8           1.2210    -1.6740     0.3200 n          1 4YF      -0.221400
     15 C9           1.8840    -3.0070     0.2270 c5         1 4YF       0.097000
     16 N13          4.3940     1.0430    -0.2290 nb         1 4YF      -0.654000
     17 C17          2.1590    -0.6110     0.2040 ca         1 4YF       0.014000
     18 C18         -2.9150    -1.0050    -0.8850 c6         1 4YF       0.139800
     19 N20         -5.1140     0.2340    -0.6880 ny         1 4YF      -0.825000
     20 H21         -6.3430     2.3590     0.4850 hc         1 4YF       0.079033
     21 H23         -4.9460     3.0400     1.3250 hc         1 4YF       0.079033
     22 H22         -4.9570     2.9650    -0.4430 hc         1 4YF       0.079033
     23 H24         -4.9440     0.5020     1.4360 hx         1 4YF       0.120700
     24 H25         -2.7240     1.6970    -0.3500 h1         1 4YF       0.074200
     25 H26         -2.6840     1.5510     1.4090 h1         1 4YF       0.074200
     26 H28         -0.5210     0.2250    -0.3950 h1         1 4YF       0.076700
     27 H27         -0.6610     0.3010     1.3690 h1         1 4YF       0.076700
     28 H31          3.5340    -2.9960    -1.2700 hc         1 4YF       0.076700
     29 H32          4.1060    -3.1390     0.3950 hc         1 4YF       0.076700
     30 H33          5.4590    -0.7100    -0.6200 h4         1 4YF       0.042100
     31 H34          1.1210     1.2880     0.6050 ha         1 4YF       0.126000
     32 H37         -4.8140    -1.5570    -1.8880 hx         1 4YF       0.111200
     33 H38         -4.8040    -1.8230    -0.1230 hx         1 4YF       0.111200
     34 H29          1.3760    -3.6640    -0.4920 h1         1 4YF       0.071200
     35 H30          1.8870    -3.5060     1.2050 h1         1 4YF       0.071200
     36 H36         -2.5970    -0.4490    -1.7800 h1         1 4YF       0.081200
     37 H35         -2.4730    -2.0090    -0.9660 h1         1 4YF       0.081200
     38 H40         -6.1480     0.1240    -0.6230 hn         1 4YF       0.499000
     39 H39         -4.9730     0.8120    -1.5420 hn         1 4YF       0.499000
     40 Cl           3.1140     3.3100     0.2550 cl         1 4YF      -0.156000
@<TRIPOS>BOND
     1     1     2 1   
     2     1    20 1   
     3     1    21 1   
     4     1    22 1   
     5     2     3 1   
     6     2    19 1   
     7     2    23 1   
     8     3     4 1   
     9     3    24 1   
    10     3    25 1   
    11     4     5 1   
    12     4    18 1   
    13     5     6 1   
    14     5    26 1   
    15     5    27 1   
    16     6    13 2   
    17     6    14 1   
    18     7     8 1   
    19     7    15 1   
    20     7    28 1   
    21     7    29 1   
    22     8     9 ar  
    23     8    17 ar  
    24     9    16 ar  
    25     9    30 1   
    26    10    11 ar  
    27    10    16 ar  
    28    10    40 1   
    29    11    17 ar  
    30    11    31 1   
    31    12    18 1   
    32    12    19 1   
    33    12    32 1   
    34    12    33 1   
    35    14    15 1   
    36    14    17 1   
    37    15    34 1   
    38    15    35 1   
    39    18    36 1   
    40    18    37 1   
    41    19    38 1   
    42    19    39 1   
@<TRIPOS>SUBSTRUCTURE
     1 4YF         1 TEMP              0 ****  ****    0 ROOT
