@<TRIPOS>MOLECULE
4YF
   40    42     1     0     0
SMALL
bcc


@<TRIPOS>ATOM
      1 C1          -5.1300     2.1290     1.0140 c3         1 4YF      -0.133100
      2 C2          -4.4370     0.8290     0.6650 c6         1 4YF       0.144500
      3 C3          -2.9560     1.0070     0.3840 c6         1 4YF       0.140800
      4 N4          -2.3440    -0.2570     0.0220 n3         1 4YF      -0.708600
      5 C5          -0.9080    -0.1650    -0.0520 c3         1 4YF       0.087800
      6 C6          -0.2490    -1.5100     0.1840 c          1 4YF       0.678100
      7 C10          3.2580    -2.6320     0.4050 c5         1 4YF      -0.036100
      8 C11          3.3580    -1.1640     0.1470 ca         1 4YF      -0.246600
      9 C12          4.4680    -0.3660     0.0320 ca         1 4YF       0.465200
     10 C14          3.1920     1.4580    -0.3190 ca         1 4YF       0.537300
     11 C16          1.9870     0.7690    -0.2240 ca         1 4YF      -0.296300
     12 C19         -4.4120    -1.0330    -0.9820 c6         1 4YF       0.129800
     13 O7          -0.8930    -2.5190     0.3800 o          1 4YF      -0.559100
     14 N8           1.1200    -1.5750     0.1790 n          1 4YF      -0.381000
     15 C9           1.7460    -2.8910     0.4210 c5         1 4YF       0.097000
     16 N13          4.3890     0.9490    -0.2010 nb         1 4YF      -0.654000
     17 C17          2.0860    -0.5940     0.0210 ca         1 4YF       0.106600
     18 C18         -2.9390    -0.7750    -1.1940 c6         1 4YF       0.139800
     19 N20         -5.0780     0.2250    -0.5470 ny         1 4YF      -0.771000
     20 H21         -6.1900     1.9740     1.2150 hc         1 4YF       0.079033
     21 H23         -4.6790     2.5480     1.9110 hc         1 4YF       0.079033
     22 H22         -5.0310     2.8610     0.2120 hc         1 4YF       0.079033
     23 H24         -4.5710     0.0930     1.4600 hx         1 4YF       0.120700
     24 H25         -2.8230     1.7800    -0.3920 h1         1 4YF       0.074200
     25 H26         -2.4950     1.3850     1.2980 h1         1 4YF       0.074200
     26 H28         -0.5650     0.2500    -1.0120 h1         1 4YF       0.076700
     27 H27         -0.5630     0.5210     0.7270 h1         1 4YF       0.076700
     28 H31          3.7550    -3.2100    -0.3740 hc         1 4YF       0.076700
     29 H32          3.7210    -2.9050     1.3530 hc         1 4YF       0.076700
     30 H33          5.4640    -0.7810     0.1290 h4         1 4YF       0.042100
     31 H34          1.0640     1.3080    -0.3450 ha         1 4YF       0.144000
     32 H37         -4.8980    -1.3620    -1.8970 hx         1 4YF       0.111200
     33 H38         -4.5790    -1.7720    -0.2000 hx         1 4YF       0.111200
     34 H29          1.4410    -3.5890    -0.3560 h1         1 4YF       0.071200
     35 H30          1.4100    -3.2850     1.3790 h1         1 4YF       0.071200
     36 H36         -2.8040    -0.0830    -2.0430 h1         1 4YF       0.081200
     37 H35         -2.4760    -1.7200    -1.4710 h1         1 4YF       0.081200
     38 H40         -6.0660     0.0470    -0.3650 hn         1 4YF       0.443800
     39 H39         -5.0590     0.9000    -1.3160 hn         1 4YF       0.443800
     40 CL           3.1110     3.1680    -0.6230 cl         1 4YF      -0.156000
@<TRIPOS>BOND
     1     1     2 1   
     2     1    20 1   
     3     1    21 1   
     4     1    22 1   
     5     2     3 1   
     6     2    19 1   
     7     2    23 1   
     8     3     4 1   
     9     3    24 1   
    10     3    25 1   
    11     4     5 1   
    12     4    18 1   
    13     5     6 1   
    14     5    26 1   
    15     5    27 1   
    16     6    13 2   
    17     6    14 1   
    18     7     8 1   
    19     7    15 1   
    20     7    28 1   
    21     7    29 1   
    22     8     9 ar  
    23     8    17 ar  
    24     9    16 ar  
    25     9    30 1   
    26    10    11 ar  
    27    10    16 ar  
    28    10    40 1   
    29    11    17 ar  
    30    11    31 1   
    31    12    18 1   
    32    12    19 1   
    33    12    32 1   
    34    12    33 1   
    35    14    15 1   
    36    14    17 1   
    37    15    34 1   
    38    15    35 1   
    39    18    36 1   
    40    18    37 1   
    41    19    38 1   
    42    19    39 1   
@<TRIPOS>SUBSTRUCTURE
     1 4YF         1 TEMP              0 ****  ****    0 ROOT
