@<TRIPOS>MOLECULE
4YG
   80    84     1     0     0
SMALL
abcg2


@<TRIPOS>ATOM
      1 C22          8.7580    -4.9860    25.6350 ca         1 4YG      -0.115000
      2 C23          9.8860    -5.6420    25.1270 ca         1 4YG      -0.099000
      3 C21          7.8970    -4.3030    24.8000 ca         1 4YG      -0.046000
      4 C24         10.1750    -5.6210    23.7750 ca         1 4YG      -0.077000
      5 C20          8.1700    -4.2710    23.4320 ca         1 4YG       0.086400
      6 C25          9.3100    -4.9260    22.9370 ca         1 4YG      -0.183000
      7 C19          7.9370    -3.7380    21.3150 cc         1 4YG       0.342200
      8 C17          6.5120     1.3640    17.8260 c          1 4YG       0.564000
      9 C11          8.9630    -0.5180    21.8170 c          1 4YG       0.599100
     10 C6          10.3910     2.0670    22.2810 c          1 4YG       0.617100
     11 C15          5.7920     1.1170    20.0910 c5         1 4YG      -0.094400
     12 C16          5.3910     2.4920    19.5550 c5         1 4YG       0.099000
     13 C7          10.8770     0.6790    24.3160 c5         1 4YG       0.136000
     14 C14          6.8740     0.6470    19.1190 c5         1 4YG      -0.154700
     15 C10         10.4440    -0.3350    22.1430 c5         1 4YG       0.060700
     16 C8          11.1250    -0.8020    24.4380 cx         1 4YG      -0.128700
     17 C9          10.8690    -1.4290    23.0990 cx         1 4YG      -0.133700
     18 C26         12.2600    -1.4150    23.6660 cx         1 4YG      -0.071000
     19 C27         13.3670    -0.5770    23.0720 c3         1 4YG      -0.069100
     20 C28         12.7450    -2.7510    24.1810 c3         1 4YG      -0.069100
     21 C5          12.1070     4.7900    20.1520 c3         1 4YG      -0.336100
     22 C13          6.9880    -0.8580    18.9440 c3         1 4YG      -0.068400
     23 C18          7.3620    -3.0990    20.0750 c3         1 4YG       0.151000
     24 C4          10.3140     3.2960    23.1770 c3         1 4YG       0.166500
     25 C2           8.8720     3.4530    23.7170 c3         1 4YG      -0.063700
     26 C12          7.3940    -1.5700    20.2330 c3         1 4YG       0.110700
     27 N5           7.4180    -3.6200    22.4840 nd         1 4YG      -0.490100
     28 N4           5.6660     2.3600    18.1400 ns         1 4YG      -0.514900
     29 N2          10.6280     0.8930    22.8910 n          1 4YG      -0.387800
     30 N3           8.7120    -1.1630    20.6660 ns         1 4YG      -0.502900
     31 N1          10.6900     4.4790    22.4240 n7         1 4YG      -0.889300
     32 O4           8.1050    -0.1420    22.5980 o          1 4YG      -0.595100
     33 O3          10.1840     2.1320    21.0770 o          1 4YG      -0.612100
     34 O1          12.9740     3.4390    22.2370 o          1 4YG      -0.552500
     35 O2          12.7630     5.9380    22.4080 o          1 4YG      -0.552500
     36 O6           6.0290    -3.4760    19.8790 oh         1 4YG      -0.630000
     37 S2           9.4010    -4.6810    21.2280 ss         1 4YG       0.009800
     38 S1          12.2530     4.6660    21.9160 s6         1 4YG       1.193100
     39 H29          8.5600    -5.0160    26.6990 ha         1 4YG       0.120000
     40 H30         10.5450    -6.1710    25.8020 ha         1 4YG       0.117000
     41 H28          7.0240    -3.7950    25.1870 ha         1 4YG       0.138000
     42 H31         11.0520    -6.1230    23.3870 ha         1 4YG       0.126000
     43 H23          4.9350     0.4390    20.0440 hc         1 4YG       0.066700
     44 H24          6.1280     1.1590    21.1250 hc         1 4YG       0.066700
     45 H25          5.9900     3.2900    20.0040 h1         1 4YG       0.043200
     46 H26          4.3400     2.7220    19.7320 h1         1 4YG       0.043200
     47 H13         11.7310     1.2730    24.6490 h1         1 4YG       0.056700
     48 H14         10.0150     0.9620    24.9230 h1         1 4YG       0.056700
     49 H22          7.8460     1.0560    19.4280 hc         1 4YG       0.091700
     50 H17         11.0490    -0.3260    21.2310 h1         1 4YG       0.089700
     51 H15         10.7970    -1.2820    25.3520 hc         1 4YG       0.099700
     52 H16         10.3640    -2.3840    23.0150 hc         1 4YG       0.104700
     53 H32         14.1460    -0.4070    23.8170 hc         1 4YG       0.044033
     54 H33         13.8280    -1.1020    22.2330 hc         1 4YG       0.044033
     55 H34         13.0440     0.3980    22.7100 hc         1 4YG       0.044033
     56 H35         11.9370    -3.3330    24.6270 hc         1 4YG       0.044033
     57 H36         13.1730    -3.3470    23.3720 hc         1 4YG       0.044033
     58 H37         13.5180    -2.6160    24.9400 hc         1 4YG       0.044033
     59 H3           9.5500     4.2570    25.6240 hc         1 4YG       0.038867
     60 H1           9.0170     5.4980    24.4860 hc         1 4YG       0.038867
     61 H2           7.8340     4.4930    25.2980 hc         1 4YG       0.038867
     62 H6           6.8450     3.8000    23.0930 hc         1 4YG       0.038867
     63 H5           8.0140     4.7430    22.1830 hc         1 4YG       0.038867
     64 H7           7.8110     3.0250    21.8490 hc         1 4YG       0.038867
     65 H12         13.1070     4.9130    19.7390 h1         1 4YG       0.107700
     66 H11         11.6450     3.8840    19.7720 h1         1 4YG       0.107700
     67 H10         11.4960     5.6560    19.9080 h1         1 4YG       0.107700
     68 H21          6.0270    -1.2550    18.6080 hc         1 4YG       0.063700
     69 H20          7.7190    -1.0870    18.1630 hc         1 4YG       0.063700
     70 H38          7.9900    -3.3750    19.2150 h1         1 4YG       0.041700
     71 H8          10.9630     3.1650    24.0480 h1         1 4YG       0.056700
     72 H4           8.6120     2.4850    24.1560 hc         1 4YG       0.069700
     73 H19          6.7000    -1.3150    21.0350 h1         1 4YG       0.110700
     74 H27          5.3760     3.0480    17.4630 hn         1 4YG       0.324500
     75 H18          9.4880    -1.3710    20.0550 hn         1 4YG       0.315500
     76 H9          10.3020     5.3520    22.7600 hn         1 4YG       0.493000
     77 H39          6.0030    -4.3830    19.5550 ho         1 4YG       0.453000
     78 O5           6.9240     1.0940    16.7100 o          1 4YG      -0.561000
     79 C1           8.8240     4.4840    24.8420 c3         1 4YG      -0.088100
     80 C3           7.8370     3.7700    22.6420 c3         1 4YG      -0.088100
@<TRIPOS>BOND
     1     1     2 ar  
     2     1     3 ar  
     3     1    39 1   
     4     2     4 ar  
     5     2    40 1   
     6     3     5 ar  
     7     3    41 1   
     8     4     6 ar  
     9     4    42 1   
    10     5     6 ar  
    11     5    27 1   
    12     6    37 1   
    13     7    23 1   
    14     7    27 2   
    15     7    37 1   
    16     8    14 1   
    17     8    28 1   
    18     8    78 2   
    19     9    15 1   
    20     9    30 1   
    21     9    32 2   
    22    10    24 1   
    23    10    29 1   
    24    10    33 2   
    25    11    12 1   
    26    11    14 1   
    27    11    43 1   
    28    11    44 1   
    29    12    28 1   
    30    12    45 1   
    31    12    46 1   
    32    13    16 1   
    33    13    29 1   
    34    13    47 1   
    35    13    48 1   
    36    14    22 1   
    37    14    49 1   
    38    15    17 1   
    39    15    29 1   
    40    15    50 1   
    41    16    17 1   
    42    16    18 1   
    43    16    51 1   
    44    17    18 1   
    45    17    52 1   
    46    18    19 1   
    47    18    20 1   
    48    19    53 1   
    49    19    54 1   
    50    19    55 1   
    51    20    56 1   
    52    20    57 1   
    53    20    58 1   
    54    21    38 1   
    55    21    65 1   
    56    21    66 1   
    57    21    67 1   
    58    22    26 1   
    59    22    68 1   
    60    22    69 1   
    61    23    26 1   
    62    23    36 1   
    63    23    70 1   
    64    24    25 1   
    65    24    31 1   
    66    24    71 1   
    67    25    72 1   
    68    25    79 1   
    69    25    80 1   
    70    26    30 1   
    71    26    73 1   
    72    28    74 1   
    73    30    75 1   
    74    31    38 1   
    75    31    76 1   
    76    34    38 2   
    77    35    38 2   
    78    36    77 1   
    79    59    79 1   
    80    60    79 1   
    81    61    79 1   
    82    62    80 1   
    83    63    80 1   
    84    64    80 1   
@<TRIPOS>SUBSTRUCTURE
     1 4YG         1 TEMP              0 ****  ****    0 ROOT
