@<TRIPOS>MOLECULE
4YG
   80    84     1     0     0
SMALL
No Charge or Current Charge


@<TRIPOS>ATOM
      1 C22          8.5400    -5.1230    25.8130 ca         1 4YG      -0.115000
      2 C23          9.7970    -5.5750    25.3590 ca         1 4YG      -0.099000
      3 C21          7.6190    -4.5600    24.9050 ca         1 4YG      -0.046000
      4 C24         10.1350    -5.4670    23.9970 ca         1 4YG      -0.077000
      5 C20          7.9660    -4.4550    23.5480 ca         1 4YG       0.086400
      6 C25          9.1980    -4.9040    23.1170 ca         1 4YG      -0.183000
      7 C19          7.8030    -3.9410    21.4130 cc         1 4YG       0.342200
      8 C17          6.6870     1.0340    17.3860 c          1 4YG       0.564000
      9 C11          8.6630    -0.4540    21.8060 c          1 4YG       0.599100
     10 C6          10.1150     2.3170    22.3860 c          1 4YG       0.617100
     11 C15          5.8090     1.0730    19.6280 c5         1 4YG      -0.094400
     12 C16          5.7330     2.4940    19.0080 c5         1 4YG       0.099000
     13 C7          11.1390     0.8140    24.1790 c5         1 4YG       0.136000
     14 C14          6.9370     0.4280    18.7740 c5         1 4YG      -0.154700
     15 C10         10.1720    -0.1950    22.1020 c5         1 4YG       0.060700
     16 C8          11.3490    -0.7060    24.2260 cx         1 4YG      -0.128700
     17 C9          10.7670    -1.3150    22.9790 cx         1 4YG      -0.133700
     18 C26         12.2730    -1.3210    23.1830 cx         1 4YG      -0.071000
     19 C27         13.2280    -0.4760    22.3220 c3         1 4YG      -0.069100
     20 C28         12.9330    -2.6580    23.5130 c3         1 4YG      -0.069100
     21 C5          12.4700     4.0380    20.9320 c3         1 4YG      -0.336100
     22 C13          6.9740    -1.1280    18.7850 c3         1 4YG      -0.068400
     23 C18          7.2620    -3.3360    20.1230 c3         1 4YG       0.151000
     24 C4          10.2220     3.5730    23.3410 c3         1 4YG       0.166500
     25 C2           8.9190     3.7200    24.1880 c3         1 4YG      -0.063700
     26 C12          7.2710    -1.7770    20.1640 c3         1 4YG       0.110700
     27 N5           7.1380    -3.9000    22.5800 nd         1 4YG      -0.490100
     28 N4           5.9770     2.1830    17.6010 ns         1 4YG      -0.514900
     29 N2          10.3920     1.0360    22.9160 n          1 4YG      -0.387800
     30 N3           8.5470    -1.2700    20.6970 ns         1 4YG      -0.502900
     31 N1          10.5530     4.8740    22.6660 n7         1 4YG      -0.889300
     32 O4           7.7020    -0.0610    22.4570 o          1 4YG      -0.595100
     33 O3           9.7600     2.4180    21.2140 o          1 4YG      -0.612100
     34 O1          12.9530     4.9350    23.3950 o          1 4YG      -0.552500
     35 O2          12.0810     6.5500    21.6340 o          1 4YG      -0.552500
     36 O6           5.9320    -3.8100    19.8050 oh         1 4YG      -0.630000
     37 S2           9.4280    -4.6690    21.3950 ss         1 4YG       0.009800
     38 S1          12.1220     5.2110    22.2230 s6         1 4YG       1.193100
     39 H29          8.2800    -5.2060    26.8660 ha         1 4YG       0.120000
     40 H30         10.5060    -6.0070    26.0620 ha         1 4YG       0.117000
     41 H28          6.6510    -4.2060    25.2510 ha         1 4YG       0.138000
     42 H31         11.1020    -5.8110    23.6370 ha         1 4YG       0.126000
     43 H23          4.8580     0.5430    19.5000 hc         1 4YG       0.066700
     44 H24          6.0310     1.0970    20.7000 hc         1 4YG       0.066700
     45 H25          6.5150     3.1520    19.4120 h1         1 4YG       0.043200
     46 H26          4.7570     2.9670    19.1790 h1         1 4YG       0.043200
     47 H13         12.0910     1.3620    24.1860 h1         1 4YG       0.056700
     48 H14         10.5510     1.1610    25.0380 h1         1 4YG       0.056700
     49 H22          7.8970     0.8290    19.1190 hc         1 4YG       0.091700
     50 H17         10.6880    -0.1110    21.1370 h1         1 4YG       0.089700
     51 H15         11.2260    -1.2300    25.1710 hc         1 4YG       0.099700
     52 H16         10.2370    -2.2600    23.0710 hc         1 4YG       0.104700
     53 H32         14.1690    -0.2950    22.8540 hc         1 4YG       0.044033
     54 H33         13.4710    -1.0000    21.3900 hc         1 4YG       0.044033
     55 H34         12.8280     0.5030    22.0420 hc         1 4YG       0.044033
     56 H35         12.2870    -3.2830    24.1430 hc         1 4YG       0.044033
     57 H36         13.1510    -3.2260    22.6000 hc         1 4YG       0.044033
     58 H37         13.8760    -2.5110    24.0540 hc         1 4YG       0.044033
     59 H3           9.9690     4.4010    25.9900 hc         1 4YG       0.038867
     60 H1           9.2270     5.7200    25.0560 hc         1 4YG       0.038867
     61 H2           8.2150     4.6500    26.0410 hc         1 4YG       0.038867
     62 H6           6.7760     4.1230    23.9820 hc         1 4YG       0.038867
     63 H5           7.7850     5.0760    22.8780 hc         1 4YG       0.038867
     64 H7           7.4900     3.3520    22.5590 hc         1 4YG       0.038867
     65 H12         13.4380     4.3090    20.5020 h1         1 4YG       0.107700
     66 H11         12.5080     3.0420    21.3790 h1         1 4YG       0.107700
     67 H10         11.6700     4.1200    20.1900 h1         1 4YG       0.107700
     68 H21          6.0160    -1.5110    18.4110 hc         1 4YG       0.063700
     69 H20          7.7330    -1.4740    18.0720 hc         1 4YG       0.063700
     70 H38          7.9460    -3.6410    19.3200 h1         1 4YG       0.041700
     71 H8          11.0210     3.3510    24.0580 h1         1 4YG       0.056700
     72 H4           8.7150     2.7330    24.6230 hc         1 4YG       0.069700
     73 H19          6.4670    -1.4800    20.8510 h1         1 4YG       0.110700
     74 H27          5.6280     2.7030    16.8040 hn         1 4YG       0.324500
     75 H18          9.4060    -1.5300    20.2260 hn         1 4YG       0.315500
     76 H9          10.4190     5.6300    23.3330 hn         1 4YG       0.493000
     77 H39          5.9380    -4.7890    19.8870 ho         1 4YG       0.453000
     78 O5           6.8400     0.5410    16.2800 o          1 4YG      -0.561000
     79 C1           9.0970     4.6840    25.3880 c3         1 4YG      -0.088100
     80 C3           7.6700     4.0920    23.3480 c3         1 4YG      -0.088100
@<TRIPOS>BOND
     1     1     2 ar  
     2     1     3 ar  
     3     1    39 1   
     4     2     4 ar  
     5     2    40 1   
     6     3     5 ar  
     7     3    41 1   
     8     4     6 ar  
     9     4    42 1   
    10     5     6 ar  
    11     5    27 1   
    12     6    37 1   
    13     7    23 1   
    14     7    27 2   
    15     7    37 1   
    16     8    14 1   
    17     8    28 1   
    18     8    78 2   
    19     9    15 1   
    20     9    30 1   
    21     9    32 2   
    22    10    24 1   
    23    10    29 1   
    24    10    33 2   
    25    11    12 1   
    26    11    14 1   
    27    11    43 1   
    28    11    44 1   
    29    12    28 1   
    30    12    45 1   
    31    12    46 1   
    32    13    16 1   
    33    13    29 1   
    34    13    47 1   
    35    13    48 1   
    36    14    22 1   
    37    14    49 1   
    38    15    17 1   
    39    15    29 1   
    40    15    50 1   
    41    16    17 1   
    42    16    18 1   
    43    16    51 1   
    44    17    18 1   
    45    17    52 1   
    46    18    19 1   
    47    18    20 1   
    48    19    53 1   
    49    19    54 1   
    50    19    55 1   
    51    20    56 1   
    52    20    57 1   
    53    20    58 1   
    54    21    38 1   
    55    21    65 1   
    56    21    66 1   
    57    21    67 1   
    58    22    26 1   
    59    22    68 1   
    60    22    69 1   
    61    23    26 1   
    62    23    36 1   
    63    23    70 1   
    64    24    25 1   
    65    24    31 1   
    66    24    71 1   
    67    25    72 1   
    68    25    79 1   
    69    25    80 1   
    70    26    30 1   
    71    26    73 1   
    72    28    74 1   
    73    30    75 1   
    74    31    38 1   
    75    31    76 1   
    76    34    38 2   
    77    35    38 2   
    78    36    77 1   
    79    59    79 1   
    80    60    79 1   
    81    61    79 1   
    82    62    80 1   
    83    63    80 1   
    84    64    80 1   
@<TRIPOS>SUBSTRUCTURE
     1 4YG         1 TEMP              0 ****  ****    0 ROOT
