@<TRIPOS>MOLECULE
4YI
   41    43     1     0     0
SMALL
No Charge or Current Charge


@<TRIPOS>ATOM
      1 C1         -20.1360     0.8000    48.5190 ca         1 4YI      -0.109000
      2 N1         -23.4560    -6.0860    42.1250 ne         1 4YI      -0.192400
      3 C2         -20.0380     0.6460    49.9090 ca         1 4YI      -0.083000
      4 N2         -24.6040    -6.6000    42.2950 nf         1 4YI      -0.268000
      5 C3         -20.2360    -0.6180    50.4800 ca         1 4YI      -0.114000
      6 N3         -26.0200    -6.9260    40.4470 nb         1 4YI      -0.637000
      7 O          -20.7660    -3.9430    47.9200 o          1 4YI      -0.566100
      8 C5         -20.6650    -1.5830    48.2590 ca         1 4YI      -0.150600
      9 C4         -20.5400    -1.7190    49.6640 ca         1 4YI      -0.059000
     10 C          -20.4420    -0.2950    47.6900 ca         1 4YI       0.142000
     11 Cl         -20.4440     0.0320    45.9540 cl         1 4YI      -0.188000
     12 N          -21.6340    -2.6500    46.2380 ns         1 4YI      -0.127000
     13 C7         -22.0750    -3.5550    45.2310 ca         1 4YI      -0.016000
     14 C17        -22.8360    -3.0250    44.1640 ca         1 4YI       0.081100
     15 O1         -23.1100    -1.6680    44.1720 os         1 4YI      -0.366100
     16 C18        -23.8660    -1.0230    43.1300 c3         1 4YI       0.153900
     17 C16        -23.2970    -3.8730    43.1320 ca         1 4YI      -0.143000
     18 C10        -23.0020    -5.2460    43.1580 ca         1 4YI       0.077400
     19 C9         -22.2360    -5.7720    44.2120 ca         1 4YI      -0.060000
     20 C8         -21.7740    -4.9360    45.2430 ca         1 4YI      -0.129000
     21 C11        -25.0770    -7.4490    41.2640 ca         1 4YI       0.491000
     22 C15        -26.5010    -7.7150    39.4590 ca         1 4YI       0.335900
     23 C14        -26.0690    -9.0370    39.2540 ca         1 4YI      -0.153000
     24 C13        -25.0950    -9.5810    40.1070 ca         1 4YI      -0.080000
     25 C12        -24.5930    -8.7650    41.1340 ca         1 4YI      -0.137000
     26 H1         -19.9620     1.7770    48.0750 ha         1 4YI       0.133000
     27 H2         -19.8000     1.5000    50.5390 ha         1 4YI       0.122000
     28 H3         -20.1540    -0.7450    51.5570 ha         1 4YI       0.124000
     29 H4         -20.6960    -2.6870    50.1380 ha         1 4YI       0.132000
     30 H5         -21.8150    -1.6820    46.0080 hn         1 4YI       0.178000
     31 H6         -23.9590     0.0500    43.3360 h1         1 4YI       0.045367
     32 H7         -23.3700    -1.1400    42.1580 h1         1 4YI       0.045367
     33 H8         -24.8780    -1.4440    43.0630 h1         1 4YI       0.045367
     34 H9         -23.8850    -3.4870    42.3050 ha         1 4YI       0.146000
     35 H10        -21.9990    -6.8330    44.2290 ha         1 4YI       0.131000
     36 H11        -21.1770    -5.3810    46.0320 ha         1 4YI       0.155000
     37 H12        -27.2570    -7.2730    38.8110 h4         1 4YI       0.023100
     38 H13        -26.4890    -9.6270    38.4440 ha         1 4YI       0.125000
     39 H14        -24.7400   -10.6020    39.9780 ha         1 4YI       0.122000
     40 H15        -23.8400    -9.1370    41.8230 ha         1 4YI       0.144000
     41 C6         -21.0160    -2.8320    47.4660 c          1 4YI       0.626700
@<TRIPOS>BOND
     1     1     3 ar  
     2     1    10 ar  
     3     1    26 1   
     4     2     4 2   
     5     2    18 1   
     6     3     5 ar  
     7     3    27 1   
     8     4    21 1   
     9     5     9 ar  
    10     5    28 1   
    11     6    21 ar  
    12     6    22 ar  
    13     7    41 2   
    14     8     9 ar  
    15     8    10 ar  
    16     8    41 1   
    17     9    29 1   
    18    10    11 1   
    19    12    13 1   
    20    12    30 1   
    21    12    41 1   
    22    13    14 ar  
    23    13    20 ar  
    24    14    15 1   
    25    14    17 ar  
    26    15    16 1   
    27    16    31 1   
    28    16    32 1   
    29    16    33 1   
    30    17    18 ar  
    31    17    34 1   
    32    18    19 ar  
    33    19    20 ar  
    34    19    35 1   
    35    20    36 1   
    36    21    25 ar  
    37    22    23 ar  
    38    22    37 1   
    39    23    24 ar  
    40    23    38 1   
    41    24    25 ar  
    42    24    39 1   
    43    25    40 1   
@<TRIPOS>SUBSTRUCTURE
     1 4YI         1 TEMP              0 ****  ****    0 ROOT
