@<TRIPOS>MOLECULE
4YI
   41    43     1     0     0
SMALL
abcg2


@<TRIPOS>ATOM
      1 C1         -19.5770     0.6540    48.2150 ca         1 4YI      -0.109000
      2 N1         -23.6110    -6.4320    42.6420 ne         1 4YI      -0.192400
      3 C2         -19.9570     0.7350    49.5450 ca         1 4YI      -0.083000
      4 N2         -24.4630    -6.0650    41.8220 nf         1 4YI      -0.268000
      5 C3         -20.6140    -0.3260    50.1510 ca         1 4YI      -0.114000
      6 N3         -25.8090    -6.6410    40.0750 nb         1 4YI      -0.637000
      7 O          -20.4040    -3.9020    47.7650 o          1 4YI      -0.566100
      8 C5         -20.5400    -1.5620    48.0770 ca         1 4YI      -0.150600
      9 C4         -20.8910    -1.4700    49.4220 ca         1 4YI      -0.059000
     10 C          -19.8730    -0.4910    47.4900 ca         1 4YI       0.142000
     11 CL         -19.3480    -0.5790    45.8400 cl         1 4YI      -0.188000
     12 N          -21.6650    -2.6990    46.2940 ns         1 4YI      -0.127000
     13 C7         -22.1200    -3.6690    45.4090 ca         1 4YI      -0.016000
     14 C17        -23.0820    -3.2410    44.4580 ca         1 4YI       0.081100
     15 O1         -23.4270    -1.9460    44.5480 os         1 4YI      -0.366100
     16 C18        -24.3470    -1.4140    43.6130 c3         1 4YI       0.153900
     17 C16        -23.5920    -4.1250    43.5340 ca         1 4YI      -0.143000
     18 C10        -23.1530    -5.4560    43.5310 ca         1 4YI       0.077400
     19 C9         -22.2070    -5.8750    44.4510 ca         1 4YI      -0.060000
     20 C8         -21.6910    -4.9900    45.3880 ca         1 4YI      -0.129000
     21 C11        -24.9060    -7.0760    40.9430 ca         1 4YI       0.491000
     22 C15        -26.3020    -7.5030    39.1960 ca         1 4YI       0.335900
     23 C14        -25.9210    -8.8350    39.1410 ca         1 4YI      -0.153000
     24 C13        -24.9750    -9.2840    40.0530 ca         1 4YI      -0.080000
     25 C12        -24.4540    -8.3950    40.9740 ca         1 4YI      -0.137000
     26 H1         -19.0490     1.4710    47.7430 ha         1 4YI       0.133000
     27 H2         -19.7300     1.6310    50.1080 ha         1 4YI       0.122000
     28 H3         -20.9070    -0.2660    51.1900 ha         1 4YI       0.124000
     29 H4         -21.3980    -2.3020    49.8940 ha         1 4YI       0.132000
     30 H5         -22.0250    -1.7700    46.1260 hn         1 4YI       0.178000
     31 H6         -24.4650    -0.3630    43.8630 h1         1 4YI       0.045367
     32 H7         -23.9720    -1.4970    42.5900 h1         1 4YI       0.045367
     33 H8         -25.3180    -1.9080    43.6790 h1         1 4YI       0.045367
     34 H9         -24.3300    -3.8130    42.8080 ha         1 4YI       0.146000
     35 H10        -21.8710    -6.9030    44.4370 ha         1 4YI       0.131000
     36 H11        -20.9580    -5.3390    46.0940 ha         1 4YI       0.155000
     37 H12        -27.0370    -7.1150    38.5000 h4         1 4YI       0.023100
     38 H13        -26.3540    -9.4980    38.4050 ha         1 4YI       0.125000
     39 H14        -24.6480   -10.3160    40.0470 ha         1 4YI       0.122000
     40 H15        -23.7170    -8.7090    41.6980 ha         1 4YI       0.144000
     41 C6         -20.8420    -2.8440    47.3620 c          1 4YI       0.626700
@<TRIPOS>BOND
     1     1     3 ar  
     2     1    10 ar  
     3     1    26 1   
     4     2     4 2   
     5     2    18 1   
     6     3     5 ar  
     7     3    27 1   
     8     4    21 1   
     9     5     9 ar  
    10     5    28 1   
    11     6    21 ar  
    12     6    22 ar  
    13     7    41 2   
    14     8     9 ar  
    15     8    10 ar  
    16     8    41 1   
    17     9    29 1   
    18    10    11 1   
    19    12    13 1   
    20    12    30 1   
    21    12    41 1   
    22    13    14 ar  
    23    13    20 ar  
    24    14    15 1   
    25    14    17 ar  
    26    15    16 1   
    27    16    31 1   
    28    16    32 1   
    29    16    33 1   
    30    17    18 ar  
    31    17    34 1   
    32    18    19 ar  
    33    19    20 ar  
    34    19    35 1   
    35    20    36 1   
    36    21    25 ar  
    37    22    23 ar  
    38    22    37 1   
    39    23    24 ar  
    40    23    38 1   
    41    24    25 ar  
    42    24    39 1   
    43    25    40 1   
@<TRIPOS>SUBSTRUCTURE
     1 4YI         1 TEMP              0 ****  ****    0 ROOT
