@<TRIPOS>MOLECULE
4YJ
   29    30     1     0     0
SMALL
abcg2


@<TRIPOS>ATOM
      1 C11         15.9100    41.2490    20.5110 ca         1 4YJ      -0.067500
      2 C13         18.0350    41.6580    19.4510 ca         1 4YJ       0.112100
      3 C02         13.9610    36.3340    19.0000 cc         1 4YJ       0.658300
      4 N03         14.7820    35.6890    19.7560 nd         1 4YJ      -0.665000
      5 C04         15.3520    36.5020    20.7140 cd         1 4YJ       0.282500
      6 C05         16.3570    35.8860    21.6780 c          1 4YJ       0.625500
      7 O06         16.4910    34.6540    21.6110 o          1 4YJ      -0.701500
      8 O07         16.9580    36.6670    22.4460 o          1 4YJ      -0.701500
      9 C08         14.9440    37.8020    20.6940 cc         1 4YJ      -0.193300
     10 C09         15.3180    38.9980    21.5100 c3         1 4YJ       0.052200
     11 C10         16.2600    39.9300    20.7850 ca         1 4YJ      -0.085300
     12 C12         16.7790    42.1070    19.8560 ca         1 4YJ      -0.179500
     13 O14         18.8220    42.5550    18.8230 os         1 4YJ      -0.356100
     14 C15         20.1170    42.1550    18.4270 c3         1 4YJ       0.154900
     15 C16         18.3990    40.3380    19.7150 ca         1 4YJ      -0.179500
     16 C17         17.5150    39.4950    20.3740 ca         1 4YJ      -0.067500
     17 S18         13.7950    38.0200    19.4000 ss         1 4YJ      -0.260400
     18 H1          14.9370    41.6200    20.8140 ha         1 4YJ       0.129000
     19 H2          12.9100    36.3750    17.2610 hn         1 4YJ       0.449000
     20 H3          13.5580    34.8840    17.6800 hn         1 4YJ       0.449000
     21 H5          14.4180    39.5470    21.7980 hc         1 4YJ       0.070700
     22 H6          15.7830    38.6430    22.4270 hc         1 4YJ       0.070700
     23 H7          16.4870    43.1300    19.6550 ha         1 4YJ       0.108000
     24 H8          20.5890    43.0270    17.9800 h1         1 4YJ       0.032033
     25 H9          20.7230    41.8250    19.2760 h1         1 4YJ       0.032033
     26 H10         20.0890    41.3520    17.6850 h1         1 4YJ       0.032033
     27 H11         19.3650    39.9490    19.4190 ha         1 4YJ       0.108000
     28 H12         17.8120    38.4730    20.5760 ha         1 4YJ       0.129000
     29 N01         13.2100    35.7720    18.0110 nv         1 4YJ      -1.037900
@<TRIPOS>BOND
     1     1    11 ar  
     2     1    12 ar  
     3     1    18 1   
     4     2    12 ar  
     5     2    13 1   
     6     2    15 ar  
     7     3     4 2   
     8     3    17 1   
     9     3    29 1   
    10     4     5 1   
    11     5     6 1   
    12     5     9 2   
    13     6     7 1   
    14     6     8 1   
    15     9    10 1   
    16     9    17 1   
    17    10    11 1   
    18    10    21 1   
    19    10    22 1   
    20    11    16 ar  
    21    12    23 1   
    22    13    14 1   
    23    14    24 1   
    24    14    25 1   
    25    14    26 1   
    26    15    16 ar  
    27    15    27 1   
    28    16    28 1   
    29    19    29 1   
    30    20    29 1   
@<TRIPOS>SUBSTRUCTURE
     1 4YJ         1 TEMP              0 ****  ****    0 ROOT
