@<TRIPOS>MOLECULE
4YJ
   29    30     1     0     0
SMALL
No Charge or Current Charge


@<TRIPOS>ATOM
      1 C11         15.9660    40.4310    19.6310 ca         1 4YJ      -0.067500
      2 C13         18.1730    41.4040    19.2760 ca         1 4YJ       0.112100
      3 C02         13.2990    36.5010    19.3810 cc         1 4YJ       0.658300
      4 N03         14.4030    35.8240    19.4730 nd         1 4YJ      -0.665000
      5 C04         15.3350    36.5250    20.2650 cd         1 4YJ       0.282500
      6 C05         16.7450    36.0030    20.5980 c          1 4YJ       0.625500
      7 O06         17.0950    34.9230    20.1290 o          1 4YJ      -0.701500
      8 O07         17.4960    36.6360    21.3290 o          1 4YJ      -0.701500
      9 C08         14.8370    37.7540    20.7230 cc         1 4YJ      -0.193300
     10 C09         15.4950    38.8320    21.5570 c3         1 4YJ       0.052200
     11 C10         16.4400    39.7260    20.7550 ca         1 4YJ      -0.085300
     12 C12         16.8300    41.2620    18.8970 ca         1 4YJ      -0.179500
     13 O14         18.9740    42.2340    18.5180 os         1 4YJ      -0.356100
     14 C15         20.3640    42.4460    18.8230 c3         1 4YJ       0.154900
     15 C16         18.6530    40.7050    20.4040 ca         1 4YJ      -0.179500
     16 C17         17.7880    39.8730    21.1380 ca         1 4YJ      -0.067500
     17 S18         13.1960    38.0190    20.1860 ss         1 4YJ      -0.260400
     18 H1          14.9260    40.3360    19.3260 ha         1 4YJ       0.129000
     19 H2          11.5820    36.6530    18.3530 hn         1 4YJ       0.449000
     20 H3          12.5350    35.2490    18.0240 hn         1 4YJ       0.449000
     21 H5          14.7180    39.4640    22.0040 hc         1 4YJ       0.070700
     22 H6          16.0090    38.3860    22.4160 hc         1 4YJ       0.070700
     23 H7          16.4540    41.8000    18.0310 ha         1 4YJ       0.108000
     24 H8          20.8110    43.1380    18.0980 h1         1 4YJ       0.032033
     25 H9          20.4810    42.8800    19.8250 h1         1 4YJ       0.032033
     26 H10         20.9210    41.5020    18.7800 h1         1 4YJ       0.032033
     27 H11         19.6870    40.7930    20.7270 ha         1 4YJ       0.108000
     28 H12         18.1700    39.3390    22.0060 ha         1 4YJ       0.129000
     29 N01         12.2940    36.0000    18.6590 nv         1 4YJ      -1.037900
@<TRIPOS>BOND
     1     1    11 ar  
     2     1    12 ar  
     3     1    18 1   
     4     2    12 ar  
     5     2    13 1   
     6     2    15 ar  
     7     3     4 2   
     8     3    17 1   
     9     3    29 1   
    10     4     5 1   
    11     5     6 1   
    12     5     9 2   
    13     6     7 1   
    14     6     8 1   
    15     9    10 1   
    16     9    17 1   
    17    10    11 1   
    18    10    21 1   
    19    10    22 1   
    20    11    16 ar  
    21    12    23 1   
    22    13    14 1   
    23    14    24 1   
    24    14    25 1   
    25    14    26 1   
    26    15    16 ar  
    27    15    27 1   
    28    16    28 1   
    29    19    29 1   
    30    20    29 1   
@<TRIPOS>SUBSTRUCTURE
     1 4YJ         1 TEMP              0 ****  ****    0 ROOT
