@<TRIPOS>MOLECULE
4YL
   53    55     1     0     0
SMALL
No Charge or Current Charge


@<TRIPOS>ATOM
      1 C1           3.0920     2.6200     3.4430 c3         1 4YL       0.133900
      2 C3           2.9090     2.1550     1.0700 c3         1 4YL       0.156600
      3 C5           4.6910     0.8160    -0.1250 c6         1 4YL       0.097600
      4 C7           4.1810    -1.5970    -1.0440 c6         1 4YL       0.116300
      5 C8           4.5010    -2.4570    -2.2860 c3         1 4YL      -0.133100
      6 C11          0.9220    -0.0750     0.4410 c3         1 4YL       0.100800
      7 C12          0.0540    -1.3130     0.8300 c          1 4YL       0.610100
      8 C15         -2.0980    -2.5750     0.6460 c5         1 4YL       0.096000
      9 C16         -3.5480    -2.1960     0.1080 c5         1 4YL      -0.004700
     10 C19         -3.4610    -0.6760     0.0520 ca         1 4YL      -0.177300
     11 C22         -3.0700     2.0240    -0.0020 ca         1 4YL       0.470000
     12 C24         -1.9760     1.1930     0.3010 ca         1 4YL      -0.213000
     13 C25         -2.2020    -0.1940     0.3300 ca         1 4YL       0.015000
     14 O2           3.2920     1.6760     2.3770 os         1 4YL      -0.446000
     15 C4           3.1520     1.0480    -0.0140 c6         1 4YL       0.184500
     16 N6           4.9830    -0.2850    -1.1920 ny         1 4YL      -0.821000
     17 C9           2.6730    -1.2380    -0.9080 c6         1 4YL       0.147800
     18 N10          2.4020    -0.2550     0.2000 n3         1 4YL      -0.717600
     19 O13          0.5690    -2.3200     1.3130 o          1 4YL      -0.554100
     20 N14         -1.3380    -1.2990     0.5490 n          1 4YL      -0.223400
     21 C18         -4.6690    -2.6750     1.0630 c3         1 4YL      -0.082600
     22 C20         -4.5020     0.2220    -0.2470 ca         1 4YL       0.400900
     23 N21         -4.3120     1.5630    -0.2740 nb         1 4YL      -0.658000
     24 Cl          -2.8650     3.7680    -0.0420 cl         1 4YL      -0.159000
     25 H26          3.6790     3.5330     3.2740 h1         1 4YL       0.046367
     26 H27          2.0330     2.8990     3.5250 h1         1 4YL       0.046367
     27 H28          3.4050     2.1870     4.4020 h1         1 4YL       0.046367
     28 H29          1.8550     2.4570     1.0560 h1         1 4YL       0.043200
     29 H30          3.5010     3.0400     0.8000 h1         1 4YL       0.043200
     30 H32          5.2280     1.7280    -0.4110 hx         1 4YL       0.113700
     31 H33          5.0890     0.4550     0.8300 hx         1 4YL       0.113700
     32 H36          4.5380    -2.1010    -0.1370 hx         1 4YL       0.128700
     33 H38          5.5740    -2.6700    -2.3560 hc         1 4YL       0.077700
     34 H37          3.9790    -3.4210    -2.2360 hc         1 4YL       0.077700
     35 H39          4.1930    -1.9610    -3.2140 hc         1 4YL       0.077700
     36 H42          0.4670     0.3520    -0.4620 h1         1 4YL       0.076200
     37 H43          0.7590     0.6290     1.2650 h1         1 4YL       0.076200
     38 H45         -2.1320    -2.9150     1.6900 h1         1 4YL       0.072200
     39 H44         -1.6330    -3.3700     0.0490 h1         1 4YL       0.072200
     40 H53         -1.0220     1.6520     0.5200 ha         1 4YL       0.127000
     41 H31          2.8230     1.4830    -0.9690 h1         1 4YL       0.041700
     42 H35          4.8000     0.1140    -2.1360 hn         1 4YL       0.496500
     43 H34          6.0030    -0.4980    -1.1990 hn         1 4YL       0.496500
     44 H40          2.3180    -0.8310    -1.8670 h1         1 4YL       0.074700
     45 H41          2.1250    -2.1760    -0.7440 h1         1 4YL       0.074700
     46 H48         -3.8040    -3.8760    -1.2870 hc         1 4YL       0.046700
     47 H46         -4.7830    -2.4570    -1.6950 hc         1 4YL       0.046700
     48 H47         -3.0420    -2.4530    -2.0130 hc         1 4YL       0.046700
     49 H50         -4.5400    -2.2500     2.0670 hc         1 4YL       0.046700
     50 H49         -5.6610    -2.3770     0.7040 hc         1 4YL       0.046700
     51 H51         -4.6650    -3.7670     1.1630 hc         1 4YL       0.046700
     52 H52         -5.5060    -0.1350    -0.4730 h4         1 4YL       0.040100
     53 C17         -3.8110    -2.7800    -1.3020 c3         1 4YL      -0.082600
@<TRIPOS>BOND
     1     1    14 1   
     2     1    25 1   
     3     1    26 1   
     4     1    27 1   
     5     2    14 1   
     6     2    15 1   
     7     2    28 1   
     8     2    29 1   
     9     3    15 1   
    10     3    16 1   
    11     3    30 1   
    12     3    31 1   
    13     4     5 1   
    14     4    16 1   
    15     4    17 1   
    16     4    32 1   
    17     5    33 1   
    18     5    34 1   
    19     5    35 1   
    20     6     7 1   
    21     6    18 1   
    22     6    36 1   
    23     6    37 1   
    24     7    19 2   
    25     7    20 1   
    26     8     9 1   
    27     8    20 1   
    28     8    38 1   
    29     8    39 1   
    30     9    10 1   
    31     9    21 1   
    32     9    53 1   
    33    10    13 ar  
    34    10    22 ar  
    35    11    12 ar  
    36    11    23 ar  
    37    11    24 1   
    38    12    13 ar  
    39    12    40 1   
    40    13    20 1   
    41    15    18 1   
    42    15    41 1   
    43    16    42 1   
    44    16    43 1   
    45    17    18 1   
    46    17    44 1   
    47    17    45 1   
    48    21    49 1   
    49    21    50 1   
    50    21    51 1   
    51    22    23 ar  
    52    22    52 1   
    53    46    53 1   
    54    47    53 1   
    55    48    53 1   
@<TRIPOS>SUBSTRUCTURE
     1 4YL         1 TEMP              0 ****  ****    0 ROOT
