@<TRIPOS>MOLECULE
4YL
   53    55     1     0     0
SMALL
abcg2


@<TRIPOS>ATOM
      1 C1           2.5330     2.0480     3.4390 c3         1 4YL       0.133900
      2 C3           2.8380     1.9620     1.1270 c3         1 4YL       0.156600
      3 C5           4.6020     0.5300     0.1590 c6         1 4YL       0.097600
      4 C7           4.0510    -1.4920    -1.1760 c6         1 4YL       0.116300
      5 C8           4.4750    -2.2970    -2.3850 c3         1 4YL      -0.133100
      6 C11          0.8900     0.1170    -0.0590 c3         1 4YL       0.100800
      7 C12          0.1600    -1.1060     0.4690 c          1 4YL       0.610100
      8 C15         -1.9390    -2.2860     0.9180 c5         1 4YL       0.096000
      9 C16         -3.3800    -2.1080     0.4070 c5         1 4YL      -0.004700
     10 C19         -3.4130    -0.6280     0.1400 ca         1 4YL      -0.177300
     11 C22         -3.1110     1.9670    -0.4060 ca         1 4YL       0.470000
     12 C24         -1.9460     1.2480    -0.1600 ca         1 4YL      -0.213000
     13 C25         -2.1170    -0.1010     0.1190 ca         1 4YL       0.015000
     14 O2           2.7700     1.2320     2.3180 os         1 4YL      -0.446000
     15 C4           3.1770     1.0320    -0.0270 c6         1 4YL       0.184500
     16 N6           4.9970    -0.3490    -0.9710 ny         1 4YL      -0.821000
     17 C9           2.6530    -0.9200    -1.3010 c6         1 4YL       0.147800
     18 N10          2.3040    -0.1270    -0.1390 n3         1 4YL      -0.717600
     19 O13          0.7460    -2.0740     0.9040 o          1 4YL      -0.554100
     20 N14         -1.2110    -1.1010     0.4380 n          1 4YL      -0.223400
     21 C18         -4.4010    -2.5590     1.4450 c3         1 4YL      -0.082600
     22 C20         -4.4770     0.1970    -0.1220 ca         1 4YL       0.400900
     23 N21         -4.3300     1.4980    -0.3940 nb         1 4YL      -0.658000
     24 CL          -2.9420     3.6620    -0.7520 cl         1 4YL      -0.159000
     25 H26          3.3290     2.7880     3.5830 h1         1 4YL       0.046367
     26 H27          1.5820     2.5870     3.3600 h1         1 4YL       0.046367
     27 H28          2.4940     1.4070     4.3180 h1         1 4YL       0.046367
     28 H29          1.8970     2.4960     0.9290 h1         1 4YL       0.043200
     29 H30          3.6130     2.7410     1.1730 h1         1 4YL       0.043200
     30 H32          5.3110     1.3550     0.1850 hx         1 4YL       0.113700
     31 H33          4.6960    -0.0570     1.0710 hx         1 4YL       0.113700
     32 H36          4.1150    -2.0910    -0.2680 hx         1 4YL       0.128700
     33 H38          5.4780    -2.7040    -2.2610 hc         1 4YL       0.077700
     34 H37          3.7910    -3.1340    -2.5160 hc         1 4YL       0.077700
     35 H39          4.4530    -1.6960    -3.2950 hc         1 4YL       0.077700
     36 H42          0.4550     0.4280    -1.0210 h1         1 4YL       0.076200
     37 H43          0.6890     0.9220     0.6480 h1         1 4YL       0.076200
     38 H45         -1.9040    -2.3110     2.0110 h1         1 4YL       0.072200
     39 H44         -1.4760    -3.1970     0.5440 h1         1 4YL       0.072200
     40 H53         -0.9980     1.7570    -0.1830 ha         1 4YL       0.127000
     41 H31          3.1470     1.6550    -0.9380 h1         1 4YL       0.041700
     42 H35          5.0590     0.2040    -1.8290 hn         1 4YL       0.496500
     43 H34          5.9400    -0.7040    -0.8090 hn         1 4YL       0.496500
     44 H40          2.5740    -0.3390    -2.2360 h1         1 4YL       0.074700
     45 H41          1.9700    -1.7640    -1.3910 h1         1 4YL       0.074700
     46 H48         -3.5140    -3.9410    -0.7460 hc         1 4YL       0.046700
     47 H46         -4.5720    -2.6510    -1.3270 hc         1 4YL       0.046700
     48 H47         -2.8400    -2.5870    -1.6560 hc         1 4YL       0.046700
     49 H50         -4.2890    -2.0060     2.3780 hc         1 4YL       0.046700
     50 H49         -5.4200    -2.4150     1.0840 hc         1 4YL       0.046700
     51 H51         -4.2780    -3.6210     1.6630 hc         1 4YL       0.046700
     52 H52         -5.4940    -0.1790    -0.1160 h4         1 4YL       0.040100
     53 C17         -3.5860    -2.8650    -0.9100 c3         1 4YL      -0.082600
@<TRIPOS>BOND
     1     1    14 1   
     2     1    25 1   
     3     1    26 1   
     4     1    27 1   
     5     2    14 1   
     6     2    15 1   
     7     2    28 1   
     8     2    29 1   
     9     3    15 1   
    10     3    16 1   
    11     3    30 1   
    12     3    31 1   
    13     4     5 1   
    14     4    16 1   
    15     4    17 1   
    16     4    32 1   
    17     5    33 1   
    18     5    34 1   
    19     5    35 1   
    20     6     7 1   
    21     6    18 1   
    22     6    36 1   
    23     6    37 1   
    24     7    19 2   
    25     7    20 1   
    26     8     9 1   
    27     8    20 1   
    28     8    38 1   
    29     8    39 1   
    30     9    10 1   
    31     9    21 1   
    32     9    53 1   
    33    10    13 ar  
    34    10    22 ar  
    35    11    12 ar  
    36    11    23 ar  
    37    11    24 1   
    38    12    13 ar  
    39    12    40 1   
    40    13    20 1   
    41    15    18 1   
    42    15    41 1   
    43    16    42 1   
    44    16    43 1   
    45    17    18 1   
    46    17    44 1   
    47    17    45 1   
    48    21    49 1   
    49    21    50 1   
    50    21    51 1   
    51    22    23 ar  
    52    22    52 1   
    53    46    53 1   
    54    47    53 1   
    55    48    53 1   
@<TRIPOS>SUBSTRUCTURE
     1 4YL         1 TEMP              0 ****  ****    0 ROOT
