@<TRIPOS>MOLECULE
4YM
   52    55     1     0     0
SMALL
bcc


@<TRIPOS>ATOM
      1 C01          6.8400     0.3720     1.0720 c3         1 4YM      -0.098100
      2 C02          5.7990     0.8430     0.0870 c3         1 4YM       0.142400
      3 O03          4.6500    -0.0150     0.2210 os         1 4YM      -0.420900
      4 C04          3.6110     0.2120    -0.5620 c          1 4YM       0.665700
      5 O05          3.5530     1.1110    -1.3650 o          1 4YM      -0.532000
      6 C06          2.5540    -0.8180    -0.3710 ca         1 4YM      -0.330900
      7 C07          2.9720    -2.1600    -0.5220 ca         1 4YM       0.490200
      8 N08          2.1740    -3.2020    -0.5700 nb         1 4YM      -0.684000
      9 C09          0.8940    -2.9070    -0.3780 ca         1 4YM       0.453800
     10 N10         -0.1350    -3.7730    -0.3380 na         1 4YM      -0.101800
     11 N11         -1.2840    -3.1710    -0.0340 nc         1 4YM      -0.502100
     12 C12         -1.0320    -1.8910     0.1100 cd         1 4YM       0.423500
     13 C13         -2.0950    -1.0000     0.5910 ca         1 4YM      -0.093900
     14 C14         -1.8970    -0.2430     1.7460 ca         1 4YM      -0.072000
     15 C15         -2.9200     0.5320     2.2690 ca         1 4YM      -0.138000
     16 C16         -4.1550     0.5760     1.6420 ca         1 4YM      -0.084000
     17 C17         -4.3530    -0.1780     0.4860 ca         1 4YM      -0.030000
     18 C18         -5.6170    -0.1360    -0.1770 cg         1 4YM       0.232800
     19 N19         -6.6370    -0.1030    -0.7110 n1         1 4YM      -0.361800
     20 C20         -3.3320    -0.9690    -0.0380 ca         1 4YM      -0.067000
     21 C21          0.3510    -1.6340    -0.1310 ca         1 4YM      -0.334200
     22 C22          1.2020    -0.5190    -0.1940 ca         1 4YM       0.293600
     23 N23          0.6420     0.7620    -0.0800 nh         1 4YM      -0.668000
     24 C24          1.2620     1.7190     0.8210 c6         1 4YM       0.151800
     25 C25          0.3130     2.8890     0.9890 c6         1 4YM       0.132400
     26 O26          0.0430     3.4930    -0.2550 os         1 4YM      -0.379600
     27 C27         -0.5800     2.6180    -1.1740 c6         1 4YM       0.147100
     28 C28         -2.0360     2.3210    -0.8320 c3         1 4YM       0.117800
     29 N29         -2.7900     3.5360    -0.5830 n8         1 4YM      -0.873800
     30 C30          0.2420     1.3430    -1.3640 c6         1 4YM       0.163800
     31 H01          7.7120     1.0220     1.0030 hc         1 4YM       0.048700
     32 H01A         6.4720     0.4170     2.0970 hc         1 4YM       0.048700
     33 H01B         7.1650    -0.6460     0.8600 hc         1 4YM       0.048700
     34 H02          5.5050     1.8750     0.2920 h1         1 4YM       0.050700
     35 H02A         6.1730     0.7940    -0.9370 h1         1 4YM       0.050700
     36 H07          4.0280    -2.3670    -0.6590 h4         1 4YM       0.035100
     37 HN10        -0.1020    -4.7750    -0.4470 hn         1 4YM       0.343700
     38 H14         -0.9390    -0.2720     2.2480 ha         1 4YM       0.145000
     39 H15         -2.7540     1.1090     3.1680 ha         1 4YM       0.143000
     40 H16         -4.9550     1.1840     2.0410 ha         1 4YM       0.146000
     41 H20         -3.5020    -1.5480    -0.9360 ha         1 4YM       0.152000
     42 H24          1.4330     1.2440     1.7880 h1         1 4YM       0.049200
     43 H24A         2.2220     2.1110     0.4650 h1         1 4YM       0.049200
     44 H25         -0.6080     2.5600     1.4870 h1         1 4YM       0.054200
     45 H25A         0.7760     3.6490     1.6200 h1         1 4YM       0.054200
     46 H27         -0.5650     3.1510    -2.1310 h1         1 4YM       0.071700
     47 H28         -2.4330     1.7150    -1.6590 h1         1 4YM       0.036700
     48 H28A        -2.0910     1.6940     0.0560 h1         1 4YM       0.036700
     49 HN29        -2.8980     4.0520    -1.4480 hn         1 4YM       0.337300
     50 HN2A        -3.7280     3.2890    -0.2950 hn         1 4YM       0.337300
     51 H30          1.1210     1.5740    -1.9760 h1         1 4YM       0.058700
     52 H30A        -0.3540     0.6120    -1.9150 h1         1 4YM       0.058700
@<TRIPOS>BOND
     1     1     2 1   
     2     1    31 1   
     3     1    32 1   
     4     1    33 1   
     5     2     3 1   
     6     2    34 1   
     7     2    35 1   
     8     3     4 1   
     9     4     5 2   
    10     4     6 1   
    11     6     7 ar  
    12     6    22 ar  
    13     7     8 ar  
    14     7    36 1   
    15     8     9 ar  
    16     9    10 1   
    17     9    21 ar  
    18    10    11 1   
    19    10    37 1   
    20    11    12 2   
    21    12    13 1   
    22    12    21 1   
    23    13    14 ar  
    24    13    20 ar  
    25    14    15 ar  
    26    14    38 1   
    27    15    16 ar  
    28    15    39 1   
    29    16    17 ar  
    30    16    40 1   
    31    17    18 1   
    32    17    20 ar  
    33    18    19 3   
    34    20    41 1   
    35    21    22 ar  
    36    22    23 1   
    37    23    24 1   
    38    23    30 1   
    39    24    25 1   
    40    24    42 1   
    41    24    43 1   
    42    25    26 1   
    43    25    44 1   
    44    25    45 1   
    45    26    27 1   
    46    27    28 1   
    47    27    30 1   
    48    27    46 1   
    49    28    29 1   
    50    28    47 1   
    51    28    48 1   
    52    29    49 1   
    53    29    50 1   
    54    30    51 1   
    55    30    52 1   
@<TRIPOS>SUBSTRUCTURE
     1 4YM         1 TEMP              0 ****  ****    0 ROOT
