@<TRIPOS>MOLECULE
4YM
   52    55     1     0     0
SMALL
No Charge or Current Charge


@<TRIPOS>ATOM
      1 C01          6.7800     0.4550     1.2370 c3         1 4YM      -0.098100
      2 C02          5.7400     0.9120     0.2030 c3         1 4YM       0.165600
      3 O03          4.6420    -0.0120     0.2600 os         1 4YM      -0.444100
      4 C04          3.5740     0.2040    -0.5690 c          1 4YM       0.616700
      5 O05          3.5590     1.0530    -1.4480 o          1 4YM      -0.483000
      6 C06          2.5690    -0.8740    -0.4650 ca         1 4YM      -0.265600
      7 C07          3.0180    -2.1900    -0.6230 ca         1 4YM       0.424900
      8 N08          2.1910    -3.2600    -0.6370 nb         1 4YM      -0.684000
      9 C09          0.8890    -3.0200    -0.4320 ca         1 4YM       0.388500
     10 N10         -0.1810    -3.8890    -0.4640 na         1 4YM      -0.152100
     11 N11         -1.3940    -3.2340    -0.2050 nc         1 4YM      -0.502100
     12 C12         -1.0330    -1.9610    -0.0040 cd         1 4YM       0.423500
     13 C13         -1.9870    -1.0040     0.5810 ca         1 4YM      -0.093900
     14 C14         -1.6540    -0.2920     1.7510 ca         1 4YM      -0.054000
     15 C15         -2.5990     0.5420     2.3720 ca         1 4YM      -0.120000
     16 C16         -3.8920     0.6630     1.8350 ca         1 4YM      -0.066000
     17 C17         -4.2450    -0.0630     0.6810 ca         1 4YM      -0.030000
     18 C18         -5.5700     0.0470     0.1370 cg         1 4YM       0.322000
     19 N19         -6.6430     0.1400    -0.3140 n1         1 4YM      -0.451000
     20 C20         -3.2960    -0.9040     0.0660 ca         1 4YM      -0.049000
     21 C21          0.3890    -1.7770    -0.1890 ca         1 4YM      -0.268900
     22 C22          1.2000    -0.6410    -0.2480 ca         1 4YM       0.432000
     23 N23          0.6450     0.6530    -0.1700 nh         1 4YM      -0.806400
     24 C24          1.1050     1.6090     0.8920 c6         1 4YM       0.151800
     25 C25          0.1850     2.8560     1.0170 c6         1 4YM       0.155600
     26 O26          0.0200     3.4930    -0.2730 os         1 4YM      -0.426000
     27 C27         -0.5790     2.6360    -1.2850 c6         1 4YM       0.170300
     28 C28         -2.0950     2.3760    -0.9670 c3         1 4YM       0.117800
     29 N29         -2.9530     3.5890    -0.8630 n8         1 4YM      -0.984200
     30 C30          0.2440     1.3170    -1.4580 c6         1 4YM       0.163800
     31 H01          7.6420     1.1310     1.2340 hc         1 4YM       0.048700
     32 H01A         6.3480     0.4540     2.2450 hc         1 4YM       0.048700
     33 H01B         7.1350    -0.5570     1.0070 hc         1 4YM       0.048700
     34 H02          5.4080     1.9310     0.4430 h1         1 4YM       0.050700
     35 H02A         6.1960     0.9200    -0.7960 h1         1 4YM       0.050700
     36 H07          4.0730    -2.4020    -0.7980 h4         1 4YM       0.035100
     37 HN10        -0.1210    -4.8850    -0.6560 hn         1 4YM       0.394000
     38 H14         -0.6660    -0.4020     2.1910 ha         1 4YM       0.127000
     39 H15         -2.3310     1.0890     3.2730 ha         1 4YM       0.125000
     40 H16         -4.6190     1.3110     2.3220 ha         1 4YM       0.128000
     41 H20         -3.5740    -1.4810    -0.8140 ha         1 4YM       0.134000
     42 H24          1.1440     1.1030     1.8670 h1         1 4YM       0.049200
     43 H24A         2.1200     1.9660     0.6730 h1         1 4YM       0.049200
     44 H25         -0.7940     2.5710     1.4240 h1         1 4YM       0.054200
     45 H25A         0.6360     3.5760     1.7130 h1         1 4YM       0.054200
     46 H27         -0.5450     3.1750    -2.2430 h1         1 4YM       0.071700
     47 H28         -2.5050     1.7420    -1.7660 h1         1 4YM       0.036700
     48 H28A        -2.1760     1.8100    -0.0330 h1         1 4YM       0.036700
     49 HN29        -2.9460     4.0910    -1.7590 hn         1 4YM       0.392500
     50 HN2A        -3.9330     3.3040    -0.7510 hn         1 4YM       0.392500
     51 H30          1.1420     1.5620    -2.0420 h1         1 4YM       0.058700
     52 H30A        -0.3440     0.6180    -2.0720 h1         1 4YM       0.058700
@<TRIPOS>BOND
     1     1     2 1   
     2     1    31 1   
     3     1    32 1   
     4     1    33 1   
     5     2     3 1   
     6     2    34 1   
     7     2    35 1   
     8     3     4 1   
     9     4     5 2   
    10     4     6 1   
    11     6     7 ar  
    12     6    22 ar  
    13     7     8 ar  
    14     7    36 1   
    15     8     9 ar  
    16     9    10 1   
    17     9    21 ar  
    18    10    11 1   
    19    10    37 1   
    20    11    12 2   
    21    12    13 1   
    22    12    21 1   
    23    13    14 ar  
    24    13    20 ar  
    25    14    15 ar  
    26    14    38 1   
    27    15    16 ar  
    28    15    39 1   
    29    16    17 ar  
    30    16    40 1   
    31    17    18 1   
    32    17    20 ar  
    33    18    19 3   
    34    20    41 1   
    35    21    22 ar  
    36    22    23 1   
    37    23    24 1   
    38    23    30 1   
    39    24    25 1   
    40    24    42 1   
    41    24    43 1   
    42    25    26 1   
    43    25    44 1   
    44    25    45 1   
    45    26    27 1   
    46    27    28 1   
    47    27    30 1   
    48    27    46 1   
    49    28    29 1   
    50    28    47 1   
    51    28    48 1   
    52    29    49 1   
    53    29    50 1   
    54    30    51 1   
    55    30    52 1   
@<TRIPOS>SUBSTRUCTURE
     1 4YM         1 TEMP              0 ****  ****    0 ROOT
