@<TRIPOS>MOLECULE
4YN
   66    69     1     0     0
SMALL
abcg2


@<TRIPOS>ATOM
      1 C1          -3.4330     0.1140    -3.9050 c3         1 4YN       0.134900
      2 C3          -3.1460     1.5160    -2.0630 c3         1 4YN       0.157600
      3 C5          -4.9520     1.7770    -0.4000 c6         1 4YN       0.097600
      4 C7          -4.7260     0.9060     1.9150 c6         1 4YN       0.116300
      5 C8          -5.0500     1.2130     3.3620 c3         1 4YN      -0.132100
      6 C11         -1.6190     0.1240     0.0260 c3         1 4YN       0.100800
      7 C12         -1.4610    -1.3500     0.3570 c          1 4YN       0.610100
      8 C15         -0.0880    -3.3490     0.5440 c5         1 4YN       0.097000
      9 C16          1.4010    -3.7040     0.3250 c5         1 4YN      -0.002700
     10 C19          1.9580    -2.4040    -0.1870 ca         1 4YN      -0.180300
     11 C22          2.6820     0.0520    -1.0560 ca         1 4YN       0.386300
     12 C23          3.1380     1.4140    -1.5160 c3         1 4YN      -0.080400
     13 C24          4.0480     2.0490    -0.4960 ca         1 4YN      -0.086300
     14 C25          5.4310     1.9170    -0.5950 ca         1 4YN      -0.097500
     15 C26          6.2660     2.4730     0.3660 ca         1 4YN      -0.109000
     16 C27          5.7280     3.1640     1.4430 ca         1 4YN      -0.100000
     17 C28          4.3490     3.2990     1.5510 ca         1 4YN      -0.109000
     18 C31          0.9900    -1.4030    -0.2180 ca         1 4YN       0.009000
     19 O2          -3.6230     0.2850    -2.5220 os         1 4YN      -0.444000
     20 C4          -3.4440     1.6640    -0.5790 c6         1 4YN       0.182500
     21 N6          -5.2930     1.9730     1.0320 ny         1 4YN      -0.821000
     22 C9          -3.2390     0.8150     1.6420 c6         1 4YN       0.146800
     23 N10         -2.9730     0.5570     0.2400 n3         1 4YN      -0.713600
     24 O13         -2.3950    -2.0300     0.7290 o          1 4YN      -0.566100
     25 N14         -0.2230    -1.9180     0.2280 n          1 4YN      -0.220400
     26 C18          1.5500    -4.8220    -0.7080 c3         1 4YN      -0.082100
     27 C20          3.2380    -2.1090    -0.5970 ca         1 4YN       0.393900
     28 N21          3.6020    -0.9030    -1.0280 nb         1 4YN      -0.669000
     29 C29          3.5180     2.7440     0.5880 ca         1 4YN      -0.097500
     30 C30          1.3570    -0.1390    -0.6640 ca         1 4YN      -0.215000
     31 H32         -2.3720     0.1470    -4.1800 h1         1 4YN       0.045700
     32 H33         -3.8300    -0.8620    -4.1790 h1         1 4YN       0.045700
     33 H34         -3.9570     0.8800    -4.4880 h1         1 4YN       0.045700
     34 H35         -2.0690     1.6260    -2.2500 h1         1 4YN       0.042200
     35 H36         -3.6230     2.3580    -2.5870 h1         1 4YN       0.042200
     36 H39         -5.3490     2.6310    -0.9450 hx         1 4YN       0.112700
     37 H38         -5.4580     0.8710    -0.7280 hx         1 4YN       0.112700
     38 H42         -5.2080    -0.0190     1.5990 hx         1 4YN       0.127700
     39 H44         -6.1240     1.3090     3.5160 hc         1 4YN       0.077033
     40 H43         -4.6950     0.3980     3.9900 hc         1 4YN       0.077033
     41 H45         -4.5650     2.1310     3.6940 hc         1 4YN       0.077033
     42 H48         -0.8900     0.7100     0.6060 h1         1 4YN       0.074700
     43 H49         -1.3420     0.2460    -1.0220 h1         1 4YN       0.074700
     44 H51         -0.7420    -3.9300    -0.1080 h1         1 4YN       0.068700
     45 H50         -0.4040    -3.5300     1.5720 h1         1 4YN       0.068700
     46 H60          3.6630     1.3100    -2.4680 hc         1 4YN       0.059700
     47 H59          2.2730     2.0550    -1.6940 hc         1 4YN       0.059700
     48 H61          5.8570     1.3800    -1.4330 ha         1 4YN       0.108000
     49 H62          7.3390     2.3650     0.2710 ha         1 4YN       0.115000
     50 H63          6.3770     3.5990     2.1920 ha         1 4YN       0.118000
     51 H64          3.9200     3.8380     2.3860 ha         1 4YN       0.115000
     52 H37         -2.9890     2.6230    -0.2730 h1         1 4YN       0.039700
     53 H41         -4.9600     2.8900     1.3390 hn         1 4YN       0.496000
     54 H40         -6.3090     2.0060     1.1370 hn         1 4YN       0.496000
     55 H46         -2.7400     1.7350     1.9910 h1         1 4YN       0.076200
     56 H47         -2.8540    -0.0040     2.2480 h1         1 4YN       0.076200
     57 H54          1.9810    -3.3160     2.3890 hc         1 4YN       0.045533
     58 H52          1.6090    -5.0090     2.0440 hc         1 4YN       0.045533
     59 H53          3.1320    -4.3100     1.4930 hc         1 4YN       0.045533
     60 H56          2.6010    -5.0480    -0.8940 hc         1 4YN       0.045533
     61 H55          1.0720    -5.7370    -0.3540 hc         1 4YN       0.045533
     62 H57          1.0910    -4.5450    -1.6570 hc         1 4YN       0.045533
     63 H58          4.0090    -2.8720    -0.5830 h4         1 4YN       0.032100
     64 H65          2.4430     2.8550     0.6790 ha         1 4YN       0.108000
     65 H66          0.6840     0.6990    -0.7250 ha         1 4YN       0.109000
     66 C17          2.0710    -4.1050     1.6410 c3         1 4YN      -0.082100
@<TRIPOS>BOND
     1     1    19 1   
     2     1    31 1   
     3     1    32 1   
     4     1    33 1   
     5     2    19 1   
     6     2    20 1   
     7     2    34 1   
     8     2    35 1   
     9     3    20 1   
    10     3    21 1   
    11     3    36 1   
    12     3    37 1   
    13     4     5 1   
    14     4    21 1   
    15     4    22 1   
    16     4    38 1   
    17     5    39 1   
    18     5    40 1   
    19     5    41 1   
    20     6     7 1   
    21     6    23 1   
    22     6    42 1   
    23     6    43 1   
    24     7    24 2   
    25     7    25 1   
    26     8     9 1   
    27     8    25 1   
    28     8    44 1   
    29     8    45 1   
    30     9    10 1   
    31     9    26 1   
    32     9    66 1   
    33    10    18 ar  
    34    10    27 ar  
    35    11    12 1   
    36    11    28 ar  
    37    11    30 ar  
    38    12    13 1   
    39    12    46 1   
    40    12    47 1   
    41    13    14 ar  
    42    13    29 ar  
    43    14    15 ar  
    44    14    48 1   
    45    15    16 ar  
    46    15    49 1   
    47    16    17 ar  
    48    16    50 1   
    49    17    29 ar  
    50    17    51 1   
    51    18    25 1   
    52    18    30 ar  
    53    20    23 1   
    54    20    52 1   
    55    21    53 1   
    56    21    54 1   
    57    22    23 1   
    58    22    55 1   
    59    22    56 1   
    60    26    60 1   
    61    26    61 1   
    62    26    62 1   
    63    27    28 ar  
    64    27    63 1   
    65    29    64 1   
    66    30    65 1   
    67    57    66 1   
    68    58    66 1   
    69    59    66 1   
@<TRIPOS>SUBSTRUCTURE
     1 4YN         1 TEMP              0 ****  ****    0 ROOT
