@<TRIPOS>MOLECULE
4YN
   66    69     1     0     0
SMALL
No Charge or Current Charge


@<TRIPOS>ATOM
      1 C1          -2.5400     2.5570    -3.4580 c3         1 4YN       0.134900
      2 C3          -1.8420     2.5230    -1.1390 c3         1 4YN       0.157600
      3 C5          -3.5210     2.7940     0.7390 c6         1 4YN       0.097600
      4 C7          -4.0500     0.7990     2.3740 c6         1 4YN       0.116300
      5 C8          -4.2970     0.5690     3.8810 c3         1 4YN      -0.132100
      6 C11         -1.2630    -0.2720    -0.1250 c3         1 4YN       0.100800
      7 C12         -1.2950    -1.8330    -0.1120 c          1 4YN       0.610100
      8 C15         -0.0630    -3.9780     0.2950 c5         1 4YN       0.097000
      9 C16          1.4860    -4.3160     0.4740 c5         1 4YN      -0.002700
     10 C19          2.1370    -3.0720    -0.1190 ca         1 4YN      -0.180300
     11 C22          3.0700    -0.7270    -1.1980 ca         1 4YN       0.386300
     12 C23          3.6370     0.5600    -1.7910 c3         1 4YN      -0.080400
     13 C24          2.8260     1.8020    -1.4230 ca         1 4YN      -0.086300
     14 C25          2.7120     2.1970    -0.0760 ca         1 4YN      -0.097500
     15 C26          1.9500     3.3260     0.2710 ca         1 4YN      -0.109000
     16 C27          1.3010     4.0710    -0.7280 ca         1 4YN      -0.100000
     17 C28          1.4120     3.6830    -2.0740 ca         1 4YN      -0.109000
     18 C31          1.2280    -2.1000    -0.4590 ca         1 4YN       0.009000
     19 O2          -2.8450     2.1590    -2.1100 os         1 4YN      -0.444000
     20 C4          -2.2450     2.0190     0.2890 c6         1 4YN       0.182500
     21 N6          -3.9400     2.3260     2.1680 ny         1 4YN      -0.821000
     22 C9          -2.7430     0.1350     1.8500 c6         1 4YN       0.146800
     23 N10         -2.4230     0.5170     0.4300 n3         1 4YN      -0.713600
     24 O13         -2.3570    -2.4510    -0.0620 o          1 4YN      -0.566100
     25 N14         -0.0630    -2.5370    -0.0710 n          1 4YN      -0.220400
     26 C18          1.8960    -5.6000    -0.2880 c3         1 4YN      -0.082100
     27 C20          3.5080    -2.8440    -0.3350 ca         1 4YN       0.393900
     28 N21          3.9710    -1.6850    -0.8650 nb         1 4YN      -0.669000
     29 C29          2.1690     2.5500    -2.4210 ca         1 4YN      -0.097500
     30 C30          1.6810    -0.8960    -1.0190 ca         1 4YN      -0.215000
     31 H32         -1.6040     2.0940    -3.8000 h1         1 4YN       0.045700
     32 H33         -3.3420     2.2480    -4.1390 h1         1 4YN       0.045700
     33 H34         -2.4330     3.6480    -3.5290 h1         1 4YN       0.045700
     34 H35         -0.8660     2.1040    -1.4110 h1         1 4YN       0.042200
     35 H36         -1.7260     3.6150    -1.1020 h1         1 4YN       0.042200
     36 H39         -3.3600     3.8780     0.7620 hx         1 4YN       0.112700
     37 H38         -4.3560     2.5730     0.0660 hx         1 4YN       0.112700
     38 H42         -4.9150     0.4490     1.7960 hx         1 4YN       0.127700
     39 H44         -5.2150     1.0680     4.2140 hc         1 4YN       0.077033
     40 H43         -4.4090    -0.5000     4.0980 hc         1 4YN       0.077033
     41 H45         -3.4670     0.9450     4.4910 hc         1 4YN       0.077033
     42 H48         -0.3530     0.0230     0.4150 h1         1 4YN       0.074700
     43 H49         -1.1230    -0.0210    -1.1820 h1         1 4YN       0.074700
     44 H51         -0.5150    -4.5720    -0.5110 h1         1 4YN       0.068700
     45 H50         -0.6340    -4.1650     1.2140 h1         1 4YN       0.068700
     46 H60          4.6720     0.7000    -1.4570 hc         1 4YN       0.059700
     47 H59          3.6920     0.4500    -2.8810 hc         1 4YN       0.059700
     48 H61          3.2110     1.6260     0.7040 ha         1 4YN       0.108000
     49 H62          1.8650     3.6250     1.3130 ha         1 4YN       0.115000
     50 H63          0.7150     4.9480    -0.4610 ha         1 4YN       0.118000
     51 H64          0.9100     4.2580    -2.8490 ha         1 4YN       0.115000
     52 H37         -1.4280     2.3310     0.9570 h1         1 4YN       0.039700
     53 H41         -3.2570     2.7080     2.8540 hn         1 4YN       0.496000
     54 H40         -4.8430     2.7780     2.4280 hn         1 4YN       0.496000
     55 H46         -1.9110     0.4180     2.5130 h1         1 4YN       0.076200
     56 H47         -2.8650    -0.9530     1.9490 h1         1 4YN       0.076200
     57 H54          1.6080    -3.5780     2.5380 hc         1 4YN       0.045533
     58 H52          1.3550    -5.3260     2.4230 hc         1 4YN       0.045533
     59 H53          2.9510    -4.6370     2.0850 hc         1 4YN       0.045533
     60 H56          2.9700    -5.8010    -0.1910 hc         1 4YN       0.045533
     61 H55          1.3580    -6.4770     0.0930 hc         1 4YN       0.045533
     62 H57          1.6720    -5.5120    -1.3580 hc         1 4YN       0.045533
     63 H58          4.2520    -3.5960    -0.0740 h4         1 4YN       0.032100
     64 H65          2.2430     2.2560    -3.4650 ha         1 4YN       0.108000
     65 H66          1.0120    -0.1080    -1.3350 ha         1 4YN       0.109000
     66 C17          1.8730    -4.4750     1.9650 c3         1 4YN      -0.082100
@<TRIPOS>BOND
     1     1    19 1   
     2     1    31 1   
     3     1    32 1   
     4     1    33 1   
     5     2    19 1   
     6     2    20 1   
     7     2    34 1   
     8     2    35 1   
     9     3    20 1   
    10     3    21 1   
    11     3    36 1   
    12     3    37 1   
    13     4     5 1   
    14     4    21 1   
    15     4    22 1   
    16     4    38 1   
    17     5    39 1   
    18     5    40 1   
    19     5    41 1   
    20     6     7 1   
    21     6    23 1   
    22     6    42 1   
    23     6    43 1   
    24     7    24 2   
    25     7    25 1   
    26     8     9 1   
    27     8    25 1   
    28     8    44 1   
    29     8    45 1   
    30     9    10 1   
    31     9    26 1   
    32     9    66 1   
    33    10    18 ar  
    34    10    27 ar  
    35    11    12 1   
    36    11    28 ar  
    37    11    30 ar  
    38    12    13 1   
    39    12    46 1   
    40    12    47 1   
    41    13    14 ar  
    42    13    29 ar  
    43    14    15 ar  
    44    14    48 1   
    45    15    16 ar  
    46    15    49 1   
    47    16    17 ar  
    48    16    50 1   
    49    17    29 ar  
    50    17    51 1   
    51    18    25 1   
    52    18    30 ar  
    53    20    23 1   
    54    20    52 1   
    55    21    53 1   
    56    21    54 1   
    57    22    23 1   
    58    22    55 1   
    59    22    56 1   
    60    26    60 1   
    61    26    61 1   
    62    26    62 1   
    63    27    28 ar  
    64    27    63 1   
    65    29    64 1   
    66    30    65 1   
    67    57    66 1   
    68    58    66 1   
    69    59    66 1   
@<TRIPOS>SUBSTRUCTURE
     1 4YN         1 TEMP              0 ****  ****    0 ROOT
