@<TRIPOS>MOLECULE
4YO
   19    20     1     0     0
SMALL
No Charge or Current Charge


@<TRIPOS>ATOM
      1 O           -5.0430    -0.3650     0.0270 o          1 4YO      -0.535000
      2 C           -3.8560    -0.0650    -0.0610 c          1 4YO       0.570000
      3 CA          -3.3650     1.4100    -0.2500 c6         1 4YO       0.112800
      4 N           -1.9340     1.6180     0.1630 nu         1 4YO      -0.923200
      5 CAL         -0.9970     0.5770     0.1020 ca         1 4YO       0.251000
      6 CAE          0.3800     0.8450     0.1440 ca         1 4YO      -0.123000
      7 CAJ          1.3000    -0.2170     0.0970 ca         1 4YO      -0.006900
      8 Br1          3.1770     0.1490     0.1520 br         1 4YO      -0.095100
      9 CAC          0.8490    -1.5460     0.0130 ca         1 4YO      -0.089000
     10 CAD         -0.5300    -1.8190    -0.0270 ca         1 4YO      -0.123000
     11 CAK         -1.4540    -0.7580     0.0160 ca         1 4YO      -0.056000
     12 NAH         -2.8480    -1.0130    -0.0220 ns         1 4YO      -0.140000
     13 H1          -3.4830     1.6230    -1.3230 h1         1 4YO       0.069700
     14 H2          -4.0480     2.0700     0.3050 h1         1 4YO       0.069700
     15 H3          -1.5610     2.5720     0.1950 hn         1 4YO       0.470000
     16 H4           0.7350     1.8690     0.2130 ha         1 4YO       0.131000
     17 H5           1.5660    -2.3630    -0.0210 ha         1 4YO       0.134000
     18 H6          -0.8770    -2.8480    -0.0910 ha         1 4YO       0.122000
     19 H7          -3.1370    -1.9800     0.0550 hn         1 4YO       0.163000
@<TRIPOS>BOND
     1     1     2 2   
     2     2     3 1   
     3     2    12 1   
     4     3     4 1   
     5     3    13 1   
     6     3    14 1   
     7     4     5 1   
     8     4    15 1   
     9     5     6 ar  
    10     5    11 ar  
    11     6     7 ar  
    12     6    16 1   
    13     7     8 1   
    14     7     9 ar  
    15     9    10 ar  
    16     9    17 1   
    17    10    11 ar  
    18    10    18 1   
    19    11    12 1   
    20    12    19 1   
@<TRIPOS>SUBSTRUCTURE
     1 4YO         1 TEMP              0 ****  ****    0 ROOT
