@<TRIPOS>MOLECULE
4YO
   19    20     1     0     0
SMALL
abcg2


@<TRIPOS>ATOM
      1 O           -4.9820    -0.2940    -0.0180 o          1 4YO      -0.535000
      2 C           -3.7920    -0.0430    -0.0410 c          1 4YO       0.570000
      3 CA          -3.2530     1.3430    -0.3190 c6         1 4YO       0.112800
      4 N           -1.9940     1.5470     0.3620 nu         1 4YO      -0.923200
      5 CAL         -1.0320     0.5790     0.1890 ca         1 4YO       0.251000
      6 CAE          0.3330     0.8470     0.1780 ca         1 4YO      -0.123000
      7 CAJ          1.2340    -0.2020     0.0620 ca         1 4YO      -0.006900
      8 BR1          3.0850     0.1830     0.0630 br         1 4YO      -0.095100
      9 CAC          0.8130    -1.5140    -0.0650 ca         1 4YO      -0.089000
     10 CAD         -0.5520    -1.7760    -0.0670 ca         1 4YO      -0.123000
     11 CAK         -1.4680    -0.7480     0.0650 ca         1 4YO      -0.056000
     12 NAH         -2.8410    -0.9920     0.1290 ns         1 4YO      -0.140000
     13 H1          -3.1770     1.4580    -1.4110 h1         1 4YO       0.069700
     14 H2          -3.9780     2.0730     0.0370 h1         1 4YO       0.069700
     15 H3          -1.6600     2.4980     0.3260 hn         1 4YO       0.470000
     16 H4           0.6740     1.8710     0.2740 ha         1 4YO       0.131000
     17 H5           1.5170    -2.3290    -0.1620 ha         1 4YO       0.134000
     18 H6          -0.8990    -2.7970    -0.1620 ha         1 4YO       0.122000
     19 H7          -3.1530    -1.9460     0.2470 hn         1 4YO       0.163000
@<TRIPOS>BOND
     1     1     2 2   
     2     2     3 1   
     3     2    12 1   
     4     3     4 1   
     5     3    13 1   
     6     3    14 1   
     7     4     5 1   
     8     4    15 1   
     9     5     6 ar  
    10     5    11 ar  
    11     6     7 ar  
    12     6    16 1   
    13     7     8 1   
    14     7     9 ar  
    15     9    10 ar  
    16     9    17 1   
    17    10    11 ar  
    18    10    18 1   
    19    11    12 1   
    20    12    19 1   
@<TRIPOS>SUBSTRUCTURE
     1 4YO         1 TEMP              0 ****  ****    0 ROOT
