@<TRIPOS>MOLECULE
4YP
   47    47     1     0     0
SMALL
bcc


@<TRIPOS>ATOM
      1 CAB          6.5520     1.5030    -1.4590 c3         1 4YP      -0.055900
      2 CAO          5.1310     1.2320    -1.0550 c2         1 4YP      -0.112400
      3 CAC          4.1030     1.8170    -1.9780 c3         1 4YP      -0.055900
      4 CAI          4.8510     0.5270     0.0440 c2         1 4YP      -0.174200
      5 CAK          3.5010     0.1600     0.5770 c3         1 4YP      -0.036200
      6 CAM          3.1620    -1.3170     0.3160 c3         1 4YP      -0.038200
      7 CAP          1.8590    -1.7230     0.9470 c2         1 4YP      -0.090400
      8 CAD          1.8410    -1.8280     2.4500 c3         1 4YP      -0.064900
      9 CAJ          0.7880    -1.9580     0.1880 c2         1 4YP      -0.187200
     10 CAL         -0.5830    -2.3420     0.6710 c3         1 4YP      -0.003000
     11 CAS         -1.5820    -1.3130     0.2240 cc         1 4YP      -0.100400
     12 CAV         -1.8770    -0.2100     1.2000 c          1 4YP       0.568500
     13 OAH         -1.3680    -0.2230     2.3100 o          1 4YP      -0.512100
     14 CAQ         -2.1480    -1.3190    -0.9950 cd         1 4YP      -0.158400
     15 CAE         -1.9080    -2.3490    -2.0520 c3         1 4YP      -0.049900
     16 CAU         -3.0710    -0.2310    -1.3820 c          1 4YP       0.562500
     17 OAG         -3.6040    -0.2110    -2.4710 o          1 4YP      -0.510100
     18 CAR         -3.3530     0.8790    -0.4190 cc         1 4YP       0.111800
     19 NAF         -4.1730     1.8420    -0.8550 nv         1 4YP      -0.833600
     20 CAT         -2.7740     0.8550     0.8080 cd         1 4YP      -0.144100
     21 OAN         -3.0460     1.8410     1.7060 os         1 4YP      -0.312900
     22 CAA         -2.0660     2.8740     1.7440 c3         1 4YP       0.115700
     23 H1           6.7690     1.0780    -2.4430 hc         1 4YP       0.038533
     24 H2           6.7360     2.5770    -1.5410 hc         1 4YP       0.038533
     25 H3           7.2670     1.0900    -0.7480 hc         1 4YP       0.038533
     26 H4           4.1860     2.9060    -2.0070 hc         1 4YP       0.038533
     27 H5           4.2670     1.4690    -3.0020 hc         1 4YP       0.038533
     28 H6           3.0790     1.5670    -1.7060 hc         1 4YP       0.038533
     29 H7           5.6900     0.1430     0.6200 ha         1 4YP       0.115000
     30 H8           3.4860     0.3490     1.6550 hc         1 4YP       0.047200
     31 H9           2.7130     0.7820     0.1480 hc         1 4YP       0.047200
     32 H10          3.1290    -1.4840    -0.7630 hc         1 4YP       0.046200
     33 H11          3.9710    -1.9420     0.7090 hc         1 4YP       0.046200
     34 H12          1.6800    -2.8580     2.7750 hc         1 4YP       0.046367
     35 H13          2.7850    -1.5020     2.8850 hc         1 4YP       0.046367
     36 H14          1.0460    -1.2250     2.8890 hc         1 4YP       0.046367
     37 H15          0.8880    -1.8600    -0.8910 ha         1 4YP       0.117000
     38 H16         -0.8560    -3.3200     0.2680 hc         1 4YP       0.067200
     39 H17         -0.6040    -2.4370     1.7550 hc         1 4YP       0.067200
     40 H18         -1.3680    -1.9190    -2.8980 hc         1 4YP       0.053700
     41 H19         -1.3250    -3.1890    -1.6870 hc         1 4YP       0.053700
     42 H20         -2.8480    -2.7400    -2.4420 hc         1 4YP       0.053700
     43 H21         -4.6640     1.7200    -1.7250 hn         1 4YP       0.445300
     44 H22         -4.5410     2.5230    -0.2140 hn         1 4YP       0.445300
     45 H23         -1.9340     3.3380     0.7630 h1         1 4YP       0.036033
     46 H24         -2.4220     3.6300     2.4420 h1         1 4YP       0.036033
     47 H25         -1.1000     2.5040     2.0910 h1         1 4YP       0.036033
@<TRIPOS>BOND
     1     1     2 1   
     2     1    23 1   
     3     1    24 1   
     4     1    25 1   
     5     2     3 1   
     6     2     4 2   
     7     3    26 1   
     8     3    27 1   
     9     3    28 1   
    10     4     5 1   
    11     4    29 1   
    12     5     6 1   
    13     5    30 1   
    14     5    31 1   
    15     6     7 1   
    16     6    32 1   
    17     6    33 1   
    18     7     8 1   
    19     7     9 2   
    20     8    34 1   
    21     8    35 1   
    22     8    36 1   
    23     9    10 1   
    24     9    37 1   
    25    10    11 1   
    26    10    38 1   
    27    10    39 1   
    28    11    12 1   
    29    11    14 2   
    30    12    13 2   
    31    12    20 1   
    32    14    15 1   
    33    14    16 1   
    34    15    40 1   
    35    15    41 1   
    36    15    42 1   
    37    16    17 2   
    38    16    18 1   
    39    18    19 1   
    40    18    20 2   
    41    19    43 1   
    42    19    44 1   
    43    20    21 1   
    44    21    22 1   
    45    22    45 1   
    46    22    46 1   
    47    22    47 1   
@<TRIPOS>SUBSTRUCTURE
     1 4YP         1 TEMP              0 ****  ****    0 ROOT
