@<TRIPOS>MOLECULE
4YP
   47    47     1     0     0
SMALL
No Charge or Current Charge


@<TRIPOS>ATOM
      1 CAB          6.5390     1.5750    -1.6520 c3         1 4YP      -0.055900
      2 CAO          5.1990     1.1690    -1.0650 c2         1 4YP      -0.112400
      3 CAC          4.0320     1.5970    -1.9410 c3         1 4YP      -0.055900
      4 CAI          5.0960     0.5020     0.1010 c2         1 4YP      -0.224200
      5 CAK          3.8230     0.0640     0.8040 c3         1 4YP      -0.036200
      6 CAM          3.3400    -1.3220     0.3270 c3         1 4YP      -0.038200
      7 CAP          2.0050    -1.7310     0.9350 c2         1 4YP      -0.090400
      8 CAD          2.1280    -2.1800     2.3870 c3         1 4YP      -0.064900
      9 CAJ          0.8630    -1.6920     0.2210 c2         1 4YP      -0.237200
     10 CAL         -0.5490    -2.0270     0.6780 c3         1 4YP      -0.003000
     11 CAS         -1.5640    -1.0440     0.1120 cc         1 4YP      -0.100400
     12 CAV         -1.7450     0.2070     0.9210 c          1 4YP       0.568500
     13 OAH         -1.0960     0.3950     1.9440 o          1 4YP      -0.512100
     14 CAQ         -2.2780    -1.2680    -1.0640 cd         1 4YP      -0.158400
     15 CAE         -2.0950    -2.5120    -1.9260 c3         1 4YP      -0.049900
     16 CAU         -3.2940    -0.2830    -1.5540 c          1 4YP       0.562500
     17 OAG         -3.9480    -0.4860    -2.5770 o          1 4YP      -0.510100
     18 CAR         -3.4820     0.9720    -0.7350 cc         1 4YP       0.111800
     19 NAF         -4.4300     1.8670    -1.2250 nv         1 4YP      -0.944000
     20 CAT         -2.7560     1.2080     0.4160 cd         1 4YP      -0.144100
     21 OAN         -3.0430     2.4180     1.0460 os         1 4YP      -0.336100
     22 CAA         -2.4000     2.8600     2.2570 c3         1 4YP       0.138900
     23 H1           6.6920     1.1200    -2.6380 hc         1 4YP       0.038533
     24 H2           6.6040     2.6630    -1.7720 hc         1 4YP       0.038533
     25 H3           7.3750     1.2650    -1.0140 hc         1 4YP       0.038533
     26 H4           3.9850     2.6890    -2.0260 hc         1 4YP       0.038533
     27 H5           4.1340     1.1900    -2.9550 hc         1 4YP       0.038533
     28 H6           3.0630     1.2580    -1.5600 hc         1 4YP       0.038533
     29 H7           6.0010     0.2370     0.6510 ha         1 4YP       0.165000
     30 H8           3.9960     0.0390     1.8870 hc         1 4YP       0.047200
     31 H9           3.0220     0.7960     0.6480 hc         1 4YP       0.047200
     32 H10          3.2560    -1.2920    -0.7670 hc         1 4YP       0.046200
     33 H11          4.1090    -2.0730     0.5450 hc         1 4YP       0.046200
     34 H12          2.9140    -2.9360     2.4980 hc         1 4YP       0.046367
     35 H13          2.3830    -1.3380     3.0420 hc         1 4YP       0.046367
     36 H14          1.2100    -2.6290     2.7770 hc         1 4YP       0.046367
     37 H15          0.9010    -1.3600    -0.8180 ha         1 4YP       0.167000
     38 H16         -0.7960    -3.0490     0.3700 hc         1 4YP       0.067200
     39 H17         -0.6280    -2.0560     1.7700 hc         1 4YP       0.067200
     40 H18         -2.3510    -2.3440    -2.9790 hc         1 4YP       0.053700
     41 H19         -1.0540    -2.8550    -1.9270 hc         1 4YP       0.053700
     42 H20         -2.7190    -3.3360    -1.5610 hc         1 4YP       0.053700
     43 H21         -4.9040     1.6960    -2.1130 hn         1 4YP       0.500500
     44 H22         -4.5680     2.7660    -0.7650 hn         1 4YP       0.500500
     45 H23         -1.3170     2.9620     2.1130 h1         1 4YP       0.036033
     46 H24         -2.7920     3.8420     2.5540 h1         1 4YP       0.036033
     47 H25         -2.5910     2.1610     3.0810 h1         1 4YP       0.036033
@<TRIPOS>BOND
     1     1     2 1   
     2     1    23 1   
     3     1    24 1   
     4     1    25 1   
     5     2     3 1   
     6     2     4 2   
     7     3    26 1   
     8     3    27 1   
     9     3    28 1   
    10     4     5 1   
    11     4    29 1   
    12     5     6 1   
    13     5    30 1   
    14     5    31 1   
    15     6     7 1   
    16     6    32 1   
    17     6    33 1   
    18     7     8 1   
    19     7     9 2   
    20     8    34 1   
    21     8    35 1   
    22     8    36 1   
    23     9    10 1   
    24     9    37 1   
    25    10    11 1   
    26    10    38 1   
    27    10    39 1   
    28    11    12 1   
    29    11    14 2   
    30    12    13 2   
    31    12    20 1   
    32    14    15 1   
    33    14    16 1   
    34    15    40 1   
    35    15    41 1   
    36    15    42 1   
    37    16    17 2   
    38    16    18 1   
    39    18    19 1   
    40    18    20 2   
    41    19    43 1   
    42    19    44 1   
    43    20    21 1   
    44    21    22 1   
    45    22    45 1   
    46    22    46 1   
    47    22    47 1   
@<TRIPOS>SUBSTRUCTURE
     1 4YP         1 TEMP              0 ****  ****    0 ROOT
