@<TRIPOS>MOLECULE
4YQ
   52    56     1     0     0
SMALL
No Charge or Current Charge


@<TRIPOS>ATOM
      1 O14         -0.4590    -2.5810     0.0220 o          1 4YQ      -0.599100
      2 C13         -0.0760    -1.4250    -0.0520 c          1 4YQ       0.653700
      3 C5           1.3090    -0.9620     0.1520 cc         1 4YQ      -0.314600
      4 S6           1.7840     0.7260     0.0950 ss         1 4YQ      -0.157400
      5 C7           3.3860     0.1730     0.4980 cc         1 4YQ       0.719700
      6 O9           4.4600     0.9990     0.6690 os         1 4YQ      -0.411300
      7 C10          4.3010     2.4240     0.5290 c3         1 4YQ       0.157600
      8 C11          5.6730     3.1070     0.7510 c3         1 4YQ       0.165600
      9 O12          6.6030     2.7620    -0.2940 oh         1 4YQ      -0.644000
     10 C4           2.3880    -1.7810     0.4370 cd         1 4YQ       0.446300
     11 N8           3.5890    -1.1180     0.6470 nd         1 4YQ      -0.701000
     12 C3           2.3610    -3.2660     0.5400 cx         1 4YQ      -0.191000
     13 C2           3.5190    -4.1200     0.0590 cx         1 4YQ      -0.106900
     14 C1           2.2160    -4.1260    -0.7000 cx         1 4YQ      -0.106900
     15 N15         -0.9310    -0.3920    -0.3340 ns         1 4YQ      -0.502900
     16 C16         -2.3810    -0.5020    -0.5370 c6         1 4YQ       0.118700
     17 C17         -2.9270     0.7150    -1.3480 c6         1 4YQ      -0.072200
     18 C18         -2.7410     2.0420    -0.5470 c6         1 4YQ      -0.071900
     19 C21         -3.1460    -0.5720     0.8240 c6         1 4YQ      -0.072200
     20 C20         -2.9580     0.7510     1.6290 c6         1 4YQ      -0.071900
     21 C22         -4.6640    -0.7860     0.5460 c6         1 4YQ      -0.079400
     22 C23         -5.2260     0.4070    -0.2840 c6         1 4YQ       0.178000
     23 C25         -4.4450     0.5020    -1.6290 c6         1 4YQ      -0.079400
     24 O26         -6.6150     0.2030    -0.5410 oh         1 4YQ      -0.652000
     25 C24         -5.0240     1.7270     0.5190 c6         1 4YQ      -0.099400
     26 C19         -3.5080     1.9490     0.8030 c6         1 4YQ      -0.057700
     27 H15         -0.5110     0.5260    -0.3680 hn         1 4YQ       0.312500
     28 H101         3.9260     2.6840    -0.4710 h1         1 4YQ       0.056200
     29 H102         3.5900     2.8080     1.2730 h1         1 4YQ       0.056200
     30 H111         5.5220     4.1940     0.7750 h1         1 4YQ       0.035700
     31 H112         6.0670     2.8060     1.7310 h1         1 4YQ       0.035700
     32 H12          7.4600     3.1850    -0.0660 ho         1 4YQ       0.450000
     33 H3           1.8540    -3.6050     1.4400 hc         1 4YQ       0.116700
     34 H21C         4.3690    -3.6260    -0.4070 hc         1 4YQ       0.078450
     35 H22C         3.7730    -5.0040     0.6390 hc         1 4YQ       0.078450
     36 H11C         1.5900    -5.0130    -0.6300 hc         1 4YQ       0.078450
     37 H12C         2.1900    -3.6280    -1.6660 hc         1 4YQ       0.078450
     38 H16         -2.5730    -1.4250    -1.1060 h1         1 4YQ       0.079700
     39 H17         -2.3900     0.7860    -2.3050 hc         1 4YQ       0.067200
     40 H21         -2.7670    -1.4170     1.4150 hc         1 4YQ       0.067200
     41 H181        -1.6770     2.2440    -0.3660 hc         1 4YQ       0.040950
     42 H182        -3.1150     2.8920    -1.1340 hc         1 4YQ       0.040950
     43 H251        -4.8320     1.3300    -2.2390 hc         1 4YQ       0.053700
     44 H252        -4.5920    -0.4120    -2.2210 hc         1 4YQ       0.053700
     45 H19         -3.3720     2.8810     1.3690 hc         1 4YQ       0.051700
     46 H201        -3.4820     0.6850     2.5920 hc         1 4YQ       0.040950
     47 H202        -1.8970     0.9100     1.8700 hc         1 4YQ       0.040950
     48 H221        -4.8180    -1.7310     0.0070 hc         1 4YQ       0.053700
     49 H222        -5.2110    -0.8790     1.4950 hc         1 4YQ       0.053700
     50 H26         -6.9360     1.0070    -1.0020 ho         1 4YQ       0.440000
     51 H241        -5.4280     2.5820    -0.0400 hc         1 4YQ       0.045700
     52 H242        -5.5790     1.6850     1.4670 hc         1 4YQ       0.045700
@<TRIPOS>BOND
     1     1     2 2   
     2     2     3 1   
     3     2    15 1   
     4     3     4 1   
     5     3    10 2   
     6     4     5 1   
     7     5     6 1   
     8     5    11 2   
     9     6     7 1   
    10     7     8 1   
    11     7    28 1   
    12     7    29 1   
    13     8     9 1   
    14     8    30 1   
    15     8    31 1   
    16     9    32 1   
    17    10    11 1   
    18    10    12 1   
    19    12    13 1   
    20    12    14 1   
    21    12    33 1   
    22    13    14 1   
    23    13    34 1   
    24    13    35 1   
    25    14    36 1   
    26    14    37 1   
    27    15    16 1   
    28    15    27 1   
    29    16    17 1   
    30    16    19 1   
    31    16    38 1   
    32    17    18 1   
    33    17    23 1   
    34    17    39 1   
    35    18    26 1   
    36    18    41 1   
    37    18    42 1   
    38    19    20 1   
    39    19    21 1   
    40    19    40 1   
    41    20    26 1   
    42    20    46 1   
    43    20    47 1   
    44    21    22 1   
    45    21    48 1   
    46    21    49 1   
    47    22    23 1   
    48    22    24 1   
    49    22    25 1   
    50    23    43 1   
    51    23    44 1   
    52    24    50 1   
    53    25    26 1   
    54    25    51 1   
    55    25    52 1   
    56    26    45 1   
@<TRIPOS>SUBSTRUCTURE
     1 4YQ         1 TEMP              0 ****  ****    0 ROOT
