@<TRIPOS>MOLECULE
4YQ
   52    56     1     0     0
SMALL
abcg2


@<TRIPOS>ATOM
      1 O14         -0.5560    -2.2540    -0.7990 o          1 4YQ      -0.599100
      2 C13         -0.1530    -1.1280    -0.5330 c          1 4YQ       0.653700
      3 C5           1.2760    -0.8580    -0.2980 cc         1 4YQ      -0.314600
      4 S6           1.9450     0.7470    -0.4290 ss         1 4YQ      -0.157400
      5 C7           3.4860     0.0910     0.0070 cc         1 4YQ       0.719700
      6 O9           4.5730     0.8180     0.1160 os         1 4YQ      -0.411300
      7 C10          4.4810     2.2290    -0.1050 c3         1 4YQ       0.157600
      8 C11          5.8290     2.8440     0.1540 c3         1 4YQ       0.165600
      9 O12          6.7490     2.3650    -0.7940 oh         1 4YQ      -0.644000
     10 C4           2.2700    -1.7380     0.0470 cd         1 4YQ       0.446300
     11 N8           3.5050    -1.1810     0.2140 nd         1 4YQ      -0.701000
     12 C3           2.1280    -3.1830     0.2790 cx         1 4YQ      -0.191000
     13 C2           2.9940    -3.8470     1.3200 cx         1 4YQ      -0.106900
     14 C1           3.2520    -4.1060    -0.1220 cx         1 4YQ      -0.106900
     15 N15         -0.9790    -0.0650    -0.4500 ns         1 4YQ      -0.502900
     16 C16         -2.4120    -0.1740    -0.6520 c6         1 4YQ       0.118700
     17 C17         -3.0080     1.1730    -1.0790 c6         1 4YQ      -0.072200
     18 C18         -2.9300     2.1960     0.0590 c6         1 4YQ      -0.071900
     19 C21         -3.1570    -0.6810     0.5940 c6         1 4YQ      -0.072200
     20 C20         -3.0670     0.3420     1.7260 c6         1 4YQ      -0.071900
     21 C22         -4.6240    -0.9050     0.2220 c6         1 4YQ      -0.079400
     22 C23         -5.2520     0.4100    -0.2350 c6         1 4YQ       0.178000
     23 C25         -4.4760     0.9400    -1.4460 c6         1 4YQ      -0.079400
     24 O26         -6.5990     0.1370    -0.5700 oh         1 4YQ      -0.652000
     25 C24         -5.1550     1.4330     0.9000 c6         1 4YQ      -0.099400
     26 C19         -3.6890     1.6660     1.2760 c6         1 4YQ      -0.057700
     27 H15         -0.6270     0.8100    -0.0960 hn         1 4YQ       0.312500
     28 H101         4.1560     2.4200    -1.1330 h1         1 4YQ       0.056200
     29 H102         3.7530     2.6700     0.5830 h1         1 4YQ       0.056200
     30 H111         5.6930     3.9310     0.0910 h1         1 4YQ       0.035700
     31 H112         6.1380     2.6200     1.1820 h1         1 4YQ       0.035700
     32 H12          7.6120     2.7320    -0.5860 ho         1 4YQ       0.450000
     33 H3           1.1290    -3.5730     0.1630 hc         1 4YQ       0.116700
     34 H21C         3.6960    -3.2210     1.8550 hc         1 4YQ       0.078450
     35 H22C         2.5330    -4.6250     1.9150 hc         1 4YQ       0.078450
     36 H11C         2.9690    -5.0640    -0.5380 hc         1 4YQ       0.078450
     37 H12C         4.1310    -3.6600    -0.5670 hc         1 4YQ       0.078450
     38 H16         -2.5650    -0.8890    -1.4650 h1         1 4YQ       0.079700
     39 H17         -2.4670     1.5420    -1.9550 hc         1 4YQ       0.067200
     40 H21         -2.7180    -1.6310     0.9090 hc         1 4YQ       0.067200
     41 H181        -1.8940     2.4210     0.3330 hc         1 4YQ       0.040950
     42 H182        -3.3610     3.1440    -0.2750 hc         1 4YQ       0.040950
     43 H251        -4.9250     1.8800    -1.7890 hc         1 4YQ       0.053700
     44 H252        -4.5520     0.2270    -2.2740 hc         1 4YQ       0.053700
     45 H19         -3.6330     2.3950     2.0890 hc         1 4YQ       0.051700
     46 H201        -3.5950    -0.0380     2.6060 hc         1 4YQ       0.040950
     47 H202        -2.0280     0.4930     2.0360 hc         1 4YQ       0.040950
     48 H221        -4.7070    -1.6530    -0.5740 hc         1 4YQ       0.053700
     49 H222        -5.1720    -1.2960     1.0860 hc         1 4YQ       0.053700
     50 H26         -7.0130     0.9630    -0.8440 ho         1 4YQ       0.440000
     51 H241        -5.6160     2.3770     0.5850 hc         1 4YQ       0.045700
     52 H242        -5.7180     1.0760     1.7690 hc         1 4YQ       0.045700
@<TRIPOS>BOND
     1     1     2 2   
     2     2     3 1   
     3     2    15 1   
     4     3     4 1   
     5     3    10 2   
     6     4     5 1   
     7     5     6 1   
     8     5    11 2   
     9     6     7 1   
    10     7     8 1   
    11     7    28 1   
    12     7    29 1   
    13     8     9 1   
    14     8    30 1   
    15     8    31 1   
    16     9    32 1   
    17    10    11 1   
    18    10    12 1   
    19    12    13 1   
    20    12    14 1   
    21    12    33 1   
    22    13    14 1   
    23    13    34 1   
    24    13    35 1   
    25    14    36 1   
    26    14    37 1   
    27    15    16 1   
    28    15    27 1   
    29    16    17 1   
    30    16    19 1   
    31    16    38 1   
    32    17    18 1   
    33    17    23 1   
    34    17    39 1   
    35    18    26 1   
    36    18    41 1   
    37    18    42 1   
    38    19    20 1   
    39    19    21 1   
    40    19    40 1   
    41    20    26 1   
    42    20    46 1   
    43    20    47 1   
    44    21    22 1   
    45    21    48 1   
    46    21    49 1   
    47    22    23 1   
    48    22    24 1   
    49    22    25 1   
    50    23    43 1   
    51    23    44 1   
    52    24    50 1   
    53    25    26 1   
    54    25    51 1   
    55    25    52 1   
    56    26    45 1   
@<TRIPOS>SUBSTRUCTURE
     1 4YQ         1 TEMP              0 ****  ****    0 ROOT
