@<TRIPOS>MOLECULE
4YR
   57    61     1     0     0
SMALL
abcg2


@<TRIPOS>ATOM
      1 C49         -7.5720    -1.9600     0.0200 cx         1 4YR      -0.132400
      2 C50         -7.2520    -3.3230    -0.5120 cx         1 4YR      -0.132400
      3 C48         -6.4940    -2.1300    -1.0070 cx         1 4YR      -0.123700
      4 C45         -5.0440    -1.9780    -0.6320 c3         1 4YR       0.203800
      5 N27         -4.5670    -0.6210    -0.7740 n3         1 4YR      -0.716600
      6 C28         -3.1440    -0.4830    -0.5620 c5         1 4YR       0.148800
      7 C26         -5.1760     0.3440     0.1300 c5         1 4YR       0.160800
      8 C25         -4.2650     1.5720     0.0360 c5         1 4YR      -0.101400
      9 C24         -2.9440     1.0310    -0.5570 c5         1 4YR       0.102700
     10 N22         -1.7540     1.4110     0.1650 ns         1 4YR      -0.497900
     11 C21         -0.9150     2.3840    -0.2250 c          1 4YR       0.621700
     12 O23         -1.0730     3.0680    -1.2240 o          1 4YR      -0.575100
     13 C19          0.2840     2.5500     0.6560 ca         1 4YR      -0.194600
     14 C18          1.0340     1.4460     1.0550 ca         1 4YR      -0.045000
     15 C14          0.7150     3.8070     1.0530 ca         1 4YR       0.226000
     16 F20          0.0030     4.8860     0.7110 f          1 4YR      -0.155000
     17 C15          1.8490     3.9800     1.8210 ca         1 4YR      -0.159000
     18 C16          2.5840     2.8660     2.1930 ca         1 4YR      -0.065000
     19 C17          2.1850     1.5870     1.8160 ca         1 4YR      -0.132300
     20 C13          2.9910     0.3990     2.2790 c3         1 4YR       0.149300
     21 N7           2.8190    -0.7830     1.4520 n          1 4YR      -0.306000
     22 C1           3.4270    -0.8510     0.2030 ca         1 4YR       0.117600
     23 C6           4.1730     0.2200    -0.3000 ca         1 4YR      -0.166000
     24 C5           4.7750     0.1200    -1.5410 ca         1 4YR      -0.044000
     25 C4           4.6510    -1.0310    -2.3140 ca         1 4YR      -0.149000
     26 C3           3.9090    -2.0860    -1.8270 ca         1 4YR      -0.016000
     27 C2           3.2960    -2.0040    -0.5780 ca         1 4YR      -0.216600
     28 C8           2.5060    -3.1290    -0.0840 c          1 4YR       0.597600
     29 O11          2.3350    -4.1730    -0.6810 o          1 4YR      -0.520000
     30 N9           1.9390    -2.9160     1.1470 ns         1 4YR      -0.467500
     31 C10          2.0430    -1.8030     1.9460 c          1 4YR       0.623000
     32 O12          1.4730    -1.7480     3.0160 o          1 4YR      -0.557000
     33 H1          -8.4990    -1.4920    -0.2860 hc         1 4YR       0.070200
     34 H2          -7.2710    -1.7270     1.0340 hc         1 4YR       0.070200
     35 H3          -6.7350    -4.0140     0.1440 hc         1 4YR       0.070200
     36 H4          -7.9600    -3.7950    -1.1800 hc         1 4YR       0.070200
     37 H5          -6.7320    -1.7950    -2.0120 hc         1 4YR       0.089700
     38 H6          -4.8930    -2.3510     0.3980 h1         1 4YR       0.032700
     39 H7          -4.4380    -2.6150    -1.2830 h1         1 4YR       0.032700
     40 H9          -2.8240    -0.9100     0.4070 h1         1 4YR       0.039200
     41 H10         -2.5690    -0.9810    -1.3450 h1         1 4YR       0.039200
     42 H11         -6.2060     0.5580    -0.1540 h1         1 4YR       0.039700
     43 H12         -5.1940    -0.0360     1.1650 h1         1 4YR       0.039700
     44 H13         -4.6840     2.3440    -0.6090 hc         1 4YR       0.056700
     45 H14         -4.1030     2.0220     1.0160 hc         1 4YR       0.056700
     46 H15         -2.8260     1.3820    -1.5800 h1         1 4YR       0.095700
     47 H16         -1.6130     0.9990     1.0750 hn         1 4YR       0.314500
     48 H17          0.7180     0.4640     0.7270 ha         1 4YR       0.126000
     49 H18          2.1550     4.9730     2.1210 ha         1 4YR       0.139000
     50 H19          3.4810     3.0020     2.7840 ha         1 4YR       0.119000
     51 H20          4.0520     0.6480     2.3220 h1         1 4YR       0.079200
     52 H21          2.7040     0.1390     3.2950 h1         1 4YR       0.079200
     53 H22          4.2880     1.1380     0.2560 ha         1 4YR       0.128000
     54 H23          5.3490     0.9590    -1.9100 ha         1 4YR       0.121000
     55 H24          5.1270    -1.0950    -3.2820 ha         1 4YR       0.127000
     56 H25          3.7950    -2.9900    -2.4110 ha         1 4YR       0.141000
     57 H26          1.3660    -3.6620     1.5240 hn         1 4YR       0.346500
@<TRIPOS>BOND
     1     1     2 1   
     2     1     3 1   
     3     1    33 1   
     4     1    34 1   
     5     2     3 1   
     6     2    35 1   
     7     2    36 1   
     8     3     4 1   
     9     3    37 1   
    10     4     5 1   
    11     4    38 1   
    12     4    39 1   
    13     5     6 1   
    14     5     7 1   
    15     6     9 1   
    16     6    40 1   
    17     6    41 1   
    18     7     8 1   
    19     7    42 1   
    20     7    43 1   
    21     8     9 1   
    22     8    44 1   
    23     8    45 1   
    24     9    10 1   
    25     9    46 1   
    26    10    11 1   
    27    10    47 1   
    28    11    12 2   
    29    11    13 1   
    30    13    14 ar  
    31    13    15 ar  
    32    14    19 ar  
    33    14    48 1   
    34    15    16 1   
    35    15    17 ar  
    36    17    18 ar  
    37    17    49 1   
    38    18    19 ar  
    39    18    50 1   
    40    19    20 1   
    41    20    21 1   
    42    20    51 1   
    43    20    52 1   
    44    21    22 1   
    45    21    31 1   
    46    22    23 ar  
    47    22    27 ar  
    48    23    24 ar  
    49    23    53 1   
    50    24    25 ar  
    51    24    54 1   
    52    25    26 ar  
    53    25    55 1   
    54    26    27 ar  
    55    26    56 1   
    56    27    28 1   
    57    28    29 2   
    58    28    30 1   
    59    30    31 1   
    60    30    57 1   
    61    31    32 2   
@<TRIPOS>SUBSTRUCTURE
     1 4YR         1 TEMP              0 ****  ****    0 ROOT
