@<TRIPOS>MOLECULE
4YR
   57    61     1     0     0
SMALL
No Charge or Current Charge


@<TRIPOS>ATOM
      1 C49         -6.9130    -2.1900     1.1030 cx         1 4YR      -0.132400
      2 C50         -6.9790    -3.4040     0.2050 cx         1 4YR      -0.132400
      3 C48         -6.5350    -2.0720    -0.3570 cx         1 4YR      -0.123700
      4 C45         -5.0890    -1.8510    -0.7900 c3         1 4YR       0.203800
      5 N27         -4.7220    -0.4270    -0.9400 n3         1 4YR      -0.716600
      6 C28         -3.3600    -0.1830    -1.4780 c5         1 4YR       0.148800
      7 C26         -4.7670     0.3950     0.2880 c5         1 4YR       0.160800
      8 C25         -4.3070     1.7590    -0.2810 c5         1 4YR      -0.101400
      9 C24         -3.1390     1.3500    -1.2330 c5         1 4YR       0.102700
     10 N22         -1.9200     1.4440    -0.4060 ns         1 4YR      -0.497900
     11 C21         -1.1910     2.6210    -0.4210 c          1 4YR       0.621700
     12 O23         -1.5200     3.5670    -1.1220 o          1 4YR      -0.575100
     13 C19          0.0460     2.6340     0.4550 ca         1 4YR      -0.194600
     14 C18          0.5720     1.4320     0.9960 ca         1 4YR      -0.045000
     15 C14          0.7170     3.8450     0.7510 ca         1 4YR       0.226000
     16 F20          0.2690     5.0340     0.2880 f          1 4YR      -0.155000
     17 C15          1.8620     3.8520     1.5620 ca         1 4YR      -0.159000
     18 C16          2.3670     2.6560     2.0900 ca         1 4YR      -0.065000
     19 C17          1.7280     1.4380     1.8030 ca         1 4YR      -0.132300
     20 C13          2.2830     0.1310     2.3700 c3         1 4YR       0.149300
     21 N7           2.3830    -0.9680     1.3710 n          1 4YR      -0.306000
     22 C1           3.4270    -0.9490     0.3740 ca         1 4YR       0.117600
     23 C6           4.3690     0.1020     0.2770 ca         1 4YR      -0.166000
     24 C5           5.3640     0.0850    -0.7140 ca         1 4YR      -0.044000
     25 C4           5.4310    -0.9820    -1.6210 ca         1 4YR      -0.149000
     26 C3           4.5010    -2.0290    -1.5410 ca         1 4YR      -0.016000
     27 C2           3.4990    -2.0130    -0.5470 ca         1 4YR      -0.216600
     28 C8           2.5020    -3.1230    -0.4640 c          1 4YR       0.597600
     29 O11          2.4990    -4.0820    -1.2190 o          1 4YR      -0.520000
     30 N9           1.5750    -3.0040     0.5170 ns         1 4YR      -0.467500
     31 C10          1.4390    -2.0140     1.4340 c          1 4YR       0.623000
     32 O12          0.5320    -2.0590     2.2480 o          1 4YR      -0.557000
     33 H1          -7.8510    -1.7400     1.4190 hc         1 4YR       0.070200
     34 H2          -6.1160    -2.1480     1.8420 hc         1 4YR       0.070200
     35 H3          -6.2260    -4.1770     0.3450 hc         1 4YR       0.070200
     36 H4          -7.9610    -3.7710    -0.0800 hc         1 4YR       0.070200
     37 H5          -7.2400    -1.5630    -1.0100 hc         1 4YR       0.089700
     38 H6          -4.4180    -2.3350    -0.0660 h1         1 4YR       0.032700
     39 H7          -4.9450    -2.3640    -1.7500 h1         1 4YR       0.032700
     40 H9          -2.6150    -0.7960    -0.9500 h1         1 4YR       0.039200
     41 H10         -3.2960    -0.4340    -2.5450 h1         1 4YR       0.039200
     42 H11         -5.7740     0.4560     0.7230 h1         1 4YR       0.039700
     43 H12         -4.0770     0.0190     1.0570 h1         1 4YR       0.039700
     44 H13         -5.1180     2.2240    -0.8520 hc         1 4YR       0.056700
     45 H14         -4.0200     2.4700     0.5010 hc         1 4YR       0.056700
     46 H15         -3.1110     1.9330    -2.1640 h1         1 4YR       0.095700
     47 H16         -1.6120     0.7130     0.2200 hn         1 4YR       0.314500
     48 H17          0.1010     0.4760     0.7840 ha         1 4YR       0.126000
     49 H18          2.3560     4.7940     1.7840 ha         1 4YR       0.139000
     50 H19          3.2560     2.6780     2.7180 ha         1 4YR       0.119000
     51 H20          3.2790     0.3040     2.7980 h1         1 4YR       0.079200
     52 H21          1.6520    -0.1720     3.2150 h1         1 4YR       0.079200
     53 H22          4.3480     0.9460     0.9580 ha         1 4YR       0.128000
     54 H23          6.0830     0.8990    -0.7780 ha         1 4YR       0.121000
     55 H24          6.2020    -0.9960    -2.3890 ha         1 4YR       0.127000
     56 H25          4.5610    -2.8500    -2.2540 ha         1 4YR       0.141000
     57 H26          0.8980    -3.7470     0.5740 hn         1 4YR       0.346500
@<TRIPOS>BOND
     1     1     2 1   
     2     1     3 1   
     3     1    33 1   
     4     1    34 1   
     5     2     3 1   
     6     2    35 1   
     7     2    36 1   
     8     3     4 1   
     9     3    37 1   
    10     4     5 1   
    11     4    38 1   
    12     4    39 1   
    13     5     6 1   
    14     5     7 1   
    15     6     9 1   
    16     6    40 1   
    17     6    41 1   
    18     7     8 1   
    19     7    42 1   
    20     7    43 1   
    21     8     9 1   
    22     8    44 1   
    23     8    45 1   
    24     9    10 1   
    25     9    46 1   
    26    10    11 1   
    27    10    47 1   
    28    11    12 2   
    29    11    13 1   
    30    13    14 ar  
    31    13    15 ar  
    32    14    19 ar  
    33    14    48 1   
    34    15    16 1   
    35    15    17 ar  
    36    17    18 ar  
    37    17    49 1   
    38    18    19 ar  
    39    18    50 1   
    40    19    20 1   
    41    20    21 1   
    42    20    51 1   
    43    20    52 1   
    44    21    22 1   
    45    21    31 1   
    46    22    23 ar  
    47    22    27 ar  
    48    23    24 ar  
    49    23    53 1   
    50    24    25 ar  
    51    24    54 1   
    52    25    26 ar  
    53    25    55 1   
    54    26    27 ar  
    55    26    56 1   
    56    27    28 1   
    57    28    29 2   
    58    28    30 1   
    59    30    31 1   
    60    30    57 1   
    61    31    32 2   
@<TRIPOS>SUBSTRUCTURE
     1 4YR         1 TEMP              0 ****  ****    0 ROOT
