@<TRIPOS>MOLECULE
4YS
   18    19     1     0     0
SMALL
abcg2


@<TRIPOS>ATOM
      1 CAE          1.7510    -1.3040    -0.0130 ca         1 4YS      -0.124000
      2 CAB          2.7370    -0.3430    -0.0200 ca         1 4YS      -0.076000
      3 CAC          2.4050     1.0160    -0.0130 ca         1 4YS      -0.134000
      4 CAF          1.0820     1.3990     0.0010 ca         1 4YS      -0.045000
      5 CAK          0.0680     0.4340     0.0080 ca         1 4YS      -0.167600
      6 CAJ          0.3960    -0.9350     0.0010 ca         1 4YS       0.013200
      7 CAG         -0.6570    -1.9070     0.0080 cc         1 4YS      -0.259200
      8 CAD         -1.9340    -1.4850     0.0220 cd         1 4YS      -0.042400
      9 NAH         -2.2430    -0.1540     0.0290 ns         1 4YS      -0.385100
     10 CAI         -1.3320     0.8670     0.0240 c          1 4YS       0.569600
     11 OAA         -1.6930     2.0370     0.0320 o          1 4YS      -0.556000
     12 H1           2.0120    -2.3550    -0.0190 ha         1 4YS       0.116000
     13 H2           3.7780    -0.6400    -0.0310 ha         1 4YS       0.114000
     14 H3           3.1860     1.7640    -0.0180 ha         1 4YS       0.118000
     15 H4           0.8200     2.4480     0.0070 ha         1 4YS       0.136000
     16 H5          -0.4340    -2.9640     0.0020 ha         1 4YS       0.198000
     17 H6          -2.7790    -2.1580     0.0260 h4         1 4YS       0.198000
     18 H7          -3.2190     0.1090     0.0400 hn         1 4YS       0.326500
@<TRIPOS>BOND
     1     1     2 ar  
     2     1     6 ar  
     3     1    12 1   
     4     2     3 ar  
     5     2    13 1   
     6     3     4 ar  
     7     3    14 1   
     8     4     5 ar  
     9     4    15 1   
    10     5     6 ar  
    11     5    10 1   
    12     6     7 1   
    13     7     8 2   
    14     7    16 1   
    15     8     9 1   
    16     8    17 1   
    17     9    10 1   
    18     9    18 1   
    19    10    11 2   
@<TRIPOS>SUBSTRUCTURE
     1 4YS         1 TEMP              0 ****  ****    0 ROOT
