@<TRIPOS>MOLECULE
4YS
   18    19     1     0     0
SMALL
No Charge or Current Charge


@<TRIPOS>ATOM
      1 CAE          1.7500    -1.3060    -0.0140 ca         1 4YS      -0.124000
      2 CAB          2.7720    -0.3420    -0.0200 ca         1 4YS      -0.076000
      3 CAC          2.4460     1.0240    -0.0130 ca         1 4YS      -0.134000
      4 CAF          1.1000     1.4260     0.0020 ca         1 4YS      -0.045000
      5 CAK          0.0710     0.4590     0.0080 ca         1 4YS      -0.167600
      6 CAJ          0.3990    -0.9130     0.0010 ca         1 4YS       0.013200
      7 CAG         -0.6520    -1.9290     0.0080 cc         1 4YS      -0.259200
      8 CAD         -1.9720    -1.5180     0.0220 cd         1 4YS      -0.042400
      9 NAH         -2.2780    -0.1670     0.0290 ns         1 4YS      -0.385100
     10 CAI         -1.3730     0.8670     0.0240 c          1 4YS       0.569600
     11 OAA         -1.7430     2.0320     0.0310 o          1 4YS      -0.556000
     12 H1           2.0100    -2.3620    -0.0200 ha         1 4YS       0.116000
     13 H2           3.8150    -0.6530    -0.0320 ha         1 4YS       0.114000
     14 H3           3.2360     1.7720    -0.0180 ha         1 4YS       0.118000
     15 H4           0.8580     2.4870     0.0070 ha         1 4YS       0.136000
     16 H5          -0.4170    -2.9910     0.0020 ha         1 4YS       0.198000
     17 H6          -2.8300    -2.1880     0.0280 h4         1 4YS       0.198000
     18 H7          -3.2470     0.1320     0.0400 hn         1 4YS       0.326500
@<TRIPOS>BOND
     1     1     2 ar  
     2     1     6 ar  
     3     1    12 1   
     4     2     3 ar  
     5     2    13 1   
     6     3     4 ar  
     7     3    14 1   
     8     4     5 ar  
     9     4    15 1   
    10     5     6 ar  
    11     5    10 1   
    12     6     7 1   
    13     7     8 2   
    14     7    16 1   
    15     8     9 1   
    16     8    17 1   
    17     9    10 1   
    18     9    18 1   
    19    10    11 2   
@<TRIPOS>SUBSTRUCTURE
     1 4YS         1 TEMP              0 ****  ****    0 ROOT
