@<TRIPOS>MOLECULE
4YT
   33    35     1     0     0
SMALL
No Charge or Current Charge


@<TRIPOS>ATOM
      1 CAA         -0.9390    -3.6440    -0.8590 c3         1 4YT      -0.093100
      2 CAH         -1.3070    -2.8400     0.4090 c3         1 4YT      -0.085700
      3 CAN         -1.9050    -1.4840     0.1130 cc         1 4YT       0.344800
      4 NAI         -3.2180    -1.3020     0.0120 nd         1 4YT      -0.374700
      5 NAJ         -3.4760     0.0440    -0.1410 nd         1 4YT      -0.090000
      6 CAO         -2.3220     0.6750    -0.1240 cc         1 4YT      -0.094000
      7 CAF         -2.0650     2.0800    -0.1570 cc         1 4YT      -0.087000
      8 NAR         -1.3050    -0.2380    -0.0280 na         1 4YT      -0.002800
      9 CAQ          0.0550     0.1550    -0.0080 ca         1 4YT       0.042000
     10 CAG          1.1420    -0.7510    -0.0370 ca         1 4YT      -0.181000
     11 CAL          2.4690    -0.3060    -0.0030 ca         1 4YT       0.173100
     12 OAK          3.4670    -1.2590    -0.0250 os         1 4YT      -0.337100
     13 CAB          4.8630    -0.9120     0.0040 c3         1 4YT       0.147900
     14 CAD          2.7410     1.0710     0.0450 ca         1 4YT      -0.207000
     15 CAE          1.6830     1.9890     0.0330 ca         1 4YT      -0.038000
     16 CAP          0.3410     1.5500    -0.0080 ca         1 4YT      -0.103000
     17 CAM         -0.7650     2.5390    -0.0820 cd         1 4YT      -0.040300
     18 CAC         -0.5040     4.0300    -0.0910 c3         1 4YT      -0.050800
     19 H1          -1.8380    -3.8660    -1.4450 hc         1 4YT       0.043033
     20 H2          -0.2470    -3.0880    -1.5020 hc         1 4YT       0.043033
     21 H3          -0.4670    -4.5960    -0.5850 hc         1 4YT       0.043033
     22 H4          -2.0440    -3.4280     0.9690 hc         1 4YT       0.066200
     23 H5          -0.4560    -2.7560     1.0910 hc         1 4YT       0.066200
     24 H6          -2.9050     2.7650    -0.2200 ha         1 4YT       0.145000
     25 H7           1.0010    -1.8170    -0.1070 ha         1 4YT       0.144000
     26 H8           5.1290    -0.2960    -0.8650 h1         1 4YT       0.045033
     27 H9           5.1090    -0.3580     0.9190 h1         1 4YT       0.045033
     28 H10          5.4810    -1.8180    -0.0210 h1         1 4YT       0.045033
     29 H11          3.7590     1.4480     0.0730 ha         1 4YT       0.124000
     30 H12          1.9250     3.0490     0.0450 ha         1 4YT       0.120000
     31 H13         -1.4330     4.6090    -0.1410 hc         1 4YT       0.048700
     32 H14          0.0240     4.3430     0.8170 hc         1 4YT       0.048700
     33 H15          0.1050     4.3170    -0.9560 hc         1 4YT       0.048700
@<TRIPOS>BOND
     1     1     2 1   
     2     1    19 1   
     3     1    20 1   
     4     1    21 1   
     5     2     3 1   
     6     2    22 1   
     7     2    23 1   
     8     3     4 2   
     9     3     8 1   
    10     4     5 1   
    11     5     6 2   
    12     6     7 1   
    13     6     8 1   
    14     7    17 2   
    15     7    24 1   
    16     8     9 1   
    17     9    10 ar  
    18     9    16 ar  
    19    10    11 ar  
    20    10    25 1   
    21    11    12 1   
    22    11    14 ar  
    23    12    13 1   
    24    13    26 1   
    25    13    27 1   
    26    13    28 1   
    27    14    15 ar  
    28    14    29 1   
    29    15    16 ar  
    30    15    30 1   
    31    16    17 1   
    32    17    18 1   
    33    18    31 1   
    34    18    32 1   
    35    18    33 1   
@<TRIPOS>SUBSTRUCTURE
     1 4YT         1 TEMP              0 ****  ****    0 ROOT
