@<TRIPOS>MOLECULE
4YT
   33    35     1     0     0
SMALL
bcc


@<TRIPOS>ATOM
      1 CAA         -0.8240    -3.3180    -1.0860 c3         1 4YT      -0.093100
      2 CAH         -1.2880    -2.8660     0.2990 c3         1 4YT      -0.085700
      3 CAN         -1.8860    -1.5030     0.3030 cc         1 4YT       0.344800
      4 NAI         -3.1740    -1.3080     0.3570 nd         1 4YT      -0.374700
      5 NAJ         -3.4380     0.0100     0.2670 nd         1 4YT      -0.090000
      6 CAO         -2.2920     0.6270     0.1560 cc         1 4YT      -0.043300
      7 CAF         -2.0380     2.0170     0.0080 cc         1 4YT      -0.105000
      8 NAR         -1.2620    -0.2820     0.1790 na         1 4YT      -0.104200
      9 CAQ          0.0720     0.1230     0.1040 ca         1 4YT       0.092700
     10 CAG          1.1260    -0.7740     0.1990 ca         1 4YT      -0.199000
     11 CAL          2.4400    -0.3320     0.1060 ca         1 4YT       0.173100
     12 OAK          3.3820    -1.2780     0.2070 os         1 4YT      -0.313900
     13 CAB          4.7440    -0.8960     0.1330 c3         1 4YT       0.124700
     14 CAD          2.7060     1.0270    -0.0800 ca         1 4YT      -0.225000
     15 CAE          1.6520     1.9120    -0.1560 ca         1 4YT      -0.056000
     16 CAP          0.3180     1.5050    -0.0640 ca         1 4YT      -0.103000
     17 CAM         -0.7700     2.4610    -0.1150 cd         1 4YT      -0.040300
     18 CAC         -0.4770     3.9170    -0.2890 c3         1 4YT      -0.050800
     19 H1          -1.6530    -3.2960    -1.7920 hc         1 4YT       0.043033
     20 H2          -0.0280    -2.6920    -1.4890 hc         1 4YT       0.043033
     21 H3          -0.4480    -4.3390    -1.0380 hc         1 4YT       0.043033
     22 H4          -2.0780    -3.5340     0.6420 hc         1 4YT       0.066200
     23 H5          -0.4870    -2.9560     1.0350 hc         1 4YT       0.066200
     24 H6          -2.8860     2.6880    -0.0130 ha         1 4YT       0.163000
     25 H7           0.9640    -1.8270     0.3600 ha         1 4YT       0.162000
     26 H8           4.9870    -0.4460    -0.8330 h1         1 4YT       0.045033
     27 H9           5.0140    -0.1980     0.9280 h1         1 4YT       0.045033
     28 H10          5.3250    -1.8060     0.2540 h1         1 4YT       0.045033
     29 H11          3.7160     1.4040    -0.1610 ha         1 4YT       0.142000
     30 H12          1.8770     2.9610    -0.2920 ha         1 4YT       0.138000
     31 H13         -1.3970     4.4980    -0.2930 hc         1 4YT       0.048700
     32 H14          0.1560     4.2970     0.5150 hc         1 4YT       0.048700
     33 H15          0.0440     4.1090    -1.2280 hc         1 4YT       0.048700
@<TRIPOS>BOND
     1     1     2 1   
     2     1    19 1   
     3     1    20 1   
     4     1    21 1   
     5     2     3 1   
     6     2    22 1   
     7     2    23 1   
     8     3     4 2   
     9     3     8 1   
    10     4     5 1   
    11     5     6 2   
    12     6     7 1   
    13     6     8 1   
    14     7    17 2   
    15     7    24 1   
    16     8     9 1   
    17     9    10 ar  
    18     9    16 ar  
    19    10    11 ar  
    20    10    25 1   
    21    11    12 1   
    22    11    14 ar  
    23    12    13 1   
    24    13    26 1   
    25    13    27 1   
    26    13    28 1   
    27    14    15 ar  
    28    14    29 1   
    29    15    16 ar  
    30    15    30 1   
    31    16    17 1   
    32    17    18 1   
    33    18    31 1   
    34    18    32 1   
    35    18    33 1   
@<TRIPOS>SUBSTRUCTURE
     1 4YT         1 TEMP              0 ****  ****    0 ROOT
