@<TRIPOS>MOLECULE
4YU
   43    44     1     0     0
SMALL
No Charge or Current Charge


@<TRIPOS>ATOM
      1 O3          -5.0530    -2.8120    -1.2730 os         1 4YU      -0.343100
      2 C4           2.5240    -0.7260    -1.7950 c3         1 4YU       0.122200
      3 C5           0.1120    -0.8490    -1.1110 c          1 4YU       0.649300
      4 C6          -0.9280    -0.2270    -0.2380 cc         1 4YU      -0.228400
      5 N1          -2.0450     1.1010     1.2570 na         1 4YU      -0.078700
      6 C7          -0.7780     0.8270     0.6800 cd         1 4YU      -0.001300
      7 C8           0.4620     1.6040     1.0780 c3         1 4YU      -0.054900
      8 C9          -2.4170     2.1520     2.2250 c3         1 4YU       0.059900
      9 C10         -2.9430     0.1870     0.7260 ca         1 4YU      -0.087200
     10 C11         -4.3090     0.0340     1.0210 ca         1 4YU      -0.090000
     11 C12         -5.0340    -0.9740     0.3530 ca         1 4YU      -0.170000
     12 C13         -4.3870    -1.8120    -0.5930 ca         1 4YU       0.114100
     13 C14         -6.4530    -3.0760    -1.0740 c3         1 4YU       0.150900
     14 C15         -3.0160    -1.6360    -0.8610 ca         1 4YU      -0.095000
     15 O1           6.0310     1.7760    -0.6750 o          1 4YU      -0.490000
     16 C1           5.4390     1.0760     0.1350 c          1 4YU       0.592300
     17 O            5.7620     0.9740     1.4610 os         1 4YU      -0.440100
     18 C            6.8790     1.7420     1.9450 c3         1 4YU       0.151900
     19 C2           4.2650     0.2240    -0.1940 ce         1 4YU      -0.279200
     20 C3           3.7170     0.1260    -1.4300 c2         1 4YU      -0.154200
     21 N            1.3570    -0.2770    -1.0420 ns         1 4YU      -0.516900
     22 O2          -0.0960    -1.7970    -1.8540 o          1 4YU      -0.600100
     23 C16         -2.3170    -0.6240    -0.1800 ca         1 4YU      -0.017800
     24 H1           2.3120    -0.6470    -2.8700 h1         1 4YU       0.069700
     25 H2           2.7240    -1.7800    -1.5580 h1         1 4YU       0.069700
     26 H3           1.2690     0.9300     1.3870 hc         1 4YU       0.056367
     27 H4           0.8230     2.2260     0.2500 hc         1 4YU       0.056367
     28 H5           0.2830     2.2720     1.9280 hc         1 4YU       0.056367
     29 H6          -1.8200     3.0540     2.0450 h1         1 4YU       0.051033
     30 H7          -3.4740     2.4170     2.1140 h1         1 4YU       0.051033
     31 H8          -2.2360     1.7920     3.2440 h1         1 4YU       0.051033
     32 H9          -4.8080     0.6690     1.7490 ha         1 4YU       0.112000
     33 H10         -6.0890    -1.0910     0.5810 ha         1 4YU       0.115000
     34 H11         -6.6540    -3.3490    -0.0300 h1         1 4YU       0.037033
     35 H12         -7.0560    -2.1950    -1.3310 h1         1 4YU       0.037033
     36 H13         -6.7780    -3.9070    -1.7110 h1         1 4YU       0.037033
     37 H14         -2.5240    -2.2820    -1.5800 ha         1 4YU       0.150000
     38 H15          7.8040     1.4600     1.4250 h1         1 4YU       0.048033
     39 H16          6.7100     2.8170     1.7960 h1         1 4YU       0.048033
     40 H17          7.0270     1.5680     3.0190 h1         1 4YU       0.048033
     41 H18          3.8550    -0.3390     0.6430 ha         1 4YU       0.196000
     42 H20          4.1310     0.6880    -2.2700 ha         1 4YU       0.202000
     43 H22          1.4620     0.5150    -0.4260 hn         1 4YU       0.312500
@<TRIPOS>BOND
     1     1    12 1   
     2     1    13 1   
     3     2    20 1   
     4     2    21 1   
     5     2    24 1   
     6     2    25 1   
     7     3     4 1   
     8     3    21 1   
     9     3    22 2   
    10     4     6 2   
    11     4    23 1   
    12     5     6 1   
    13     5     8 1   
    14     5     9 1   
    15     6     7 1   
    16     7    26 1   
    17     7    27 1   
    18     7    28 1   
    19     8    29 1   
    20     8    30 1   
    21     8    31 1   
    22     9    10 ar  
    23     9    23 ar  
    24    10    11 ar  
    25    10    32 1   
    26    11    12 ar  
    27    11    33 1   
    28    12    14 ar  
    29    13    34 1   
    30    13    35 1   
    31    13    36 1   
    32    14    23 ar  
    33    14    37 1   
    34    15    16 2   
    35    16    17 1   
    36    16    19 1   
    37    17    18 1   
    38    18    38 1   
    39    18    39 1   
    40    18    40 1   
    41    19    20 2   
    42    19    41 1   
    43    20    42 1   
    44    21    43 1   
@<TRIPOS>SUBSTRUCTURE
     1 4YU         1 TEMP              0 ****  ****    0 ROOT
