@<TRIPOS>MOLECULE
4YU
   43    44     1     0     0
SMALL
abcg2


@<TRIPOS>ATOM
      1 O3          -4.8330    -2.6070    -1.8020 os         1 4YU      -0.343100
      2 C4           2.5250    -1.1040    -0.5520 c3         1 4YU       0.122200
      3 C5           0.1190    -0.5550    -0.6930 c          1 4YU       0.649300
      4 C6          -1.0470    -0.0640     0.0510 cc         1 4YU      -0.228400
      5 N1          -2.3950     1.0450     1.4520 na         1 4YU      -0.078700
      6 C7          -1.1030     0.8950     1.0470 cd         1 4YU      -0.001300
      7 C8          -0.0200     1.7400     1.6220 c3         1 4YU      -0.054900
      8 C9          -2.8790     1.8990     2.5100 c3         1 4YU       0.059900
      9 C10         -3.1980     0.1860     0.7390 ca         1 4YU      -0.087200
     10 C11         -4.5640    -0.0400     0.8260 ca         1 4YU      -0.090000
     11 C12         -5.1290    -0.9770    -0.0240 ca         1 4YU      -0.170000
     12 C13         -4.3360    -1.6800    -0.9470 ca         1 4YU       0.114100
     13 C14         -6.2150    -2.8890    -1.7700 c3         1 4YU       0.150900
     14 C15         -2.9690    -1.4530    -1.0270 ca         1 4YU      -0.095000
     15 O1           5.3910     2.1800    -0.7570 o          1 4YU      -0.490000
     16 C1           5.6300     1.1470    -0.1770 c          1 4YU       0.592300
     17 O            6.7720     0.9060     0.4530 os         1 4YU      -0.440100
     18 C            7.7640     1.9320     0.4310 c3         1 4YU       0.151900
     19 C2           4.7120    -0.0030    -0.0680 ce         1 4YU      -0.279200
     20 C3           3.4990     0.0290    -0.6150 c2         1 4YU      -0.154200
     21 N            1.2660    -0.6780     0.0130 ns         1 4YU      -0.516900
     22 O2           0.0410    -0.8670    -1.8770 o          1 4YU      -0.600100
     23 C16         -2.3900    -0.5140    -0.1750 ca         1 4YU      -0.017800
     24 H1           2.3400    -1.4810    -1.5580 h1         1 4YU       0.069700
     25 H2           2.9300    -1.9300     0.0350 h1         1 4YU       0.069700
     26 H3           0.2170     1.4470     2.6470 hc         1 4YU       0.056367
     27 H4           0.8890     1.6690     1.0320 hc         1 4YU       0.056367
     28 H5          -0.3090     2.7910     1.6420 hc         1 4YU       0.056367
     29 H6          -2.1650     2.6900     2.7160 h1         1 4YU       0.051033
     30 H7          -3.8160     2.3650     2.2120 h1         1 4YU       0.051033
     31 H8          -3.0450     1.3330     3.4280 h1         1 4YU       0.051033
     32 H9          -5.1870     0.4850     1.5370 ha         1 4YU       0.112000
     33 H10         -6.1930    -1.1560     0.0460 ha         1 4YU       0.115000
     34 H11         -6.5380    -3.2660    -0.7960 h1         1 4YU       0.037033
     35 H12         -6.8210    -2.0150    -2.0260 h1         1 4YU       0.037033
     36 H13         -6.3910    -3.6610    -2.5160 h1         1 4YU       0.037033
     37 H14         -2.3720    -2.0000    -1.7450 ha         1 4YU       0.150000
     38 H15          8.0800     2.1600    -0.5860 h1         1 4YU       0.048033
     39 H16          7.4060     2.8440     0.9080 h1         1 4YU       0.048033
     40 H17          8.6100     1.5420     0.9910 h1         1 4YU       0.048033
     41 H18          5.0560    -0.8760     0.4750 ha         1 4YU       0.196000
     42 H20          3.1660     0.9160    -1.1470 ha         1 4YU       0.202000
     43 H22          1.2350    -0.5550     1.0120 hn         1 4YU       0.312500
@<TRIPOS>BOND
     1     1    12 1   
     2     1    13 1   
     3     2    20 1   
     4     2    21 1   
     5     2    24 1   
     6     2    25 1   
     7     3     4 1   
     8     3    21 1   
     9     3    22 2   
    10     4     6 2   
    11     4    23 1   
    12     5     6 1   
    13     5     8 1   
    14     5     9 1   
    15     6     7 1   
    16     7    26 1   
    17     7    27 1   
    18     7    28 1   
    19     8    29 1   
    20     8    30 1   
    21     8    31 1   
    22     9    10 ar  
    23     9    23 ar  
    24    10    11 ar  
    25    10    32 1   
    26    11    12 ar  
    27    11    33 1   
    28    12    14 ar  
    29    13    34 1   
    30    13    35 1   
    31    13    36 1   
    32    14    23 ar  
    33    14    37 1   
    34    15    16 2   
    35    16    17 1   
    36    16    19 1   
    37    17    18 1   
    38    18    38 1   
    39    18    39 1   
    40    18    40 1   
    41    19    20 2   
    42    19    41 1   
    43    20    42 1   
    44    21    43 1   
@<TRIPOS>SUBSTRUCTURE
     1 4YU         1 TEMP              0 ****  ****    0 ROOT
