@<TRIPOS>MOLECULE
4YV
   56    60     1     0     0
SMALL
No Charge or Current Charge


@<TRIPOS>ATOM
      1 C4           6.4250     0.0920    -0.4760 c6         1 4YV      -0.110900
      2 C5           5.4790     1.0650     0.2600 c6         1 4YV       0.225300
      3 C11          2.3870     3.8650    -0.0500 ca         1 4YV       0.171900
      4 C7           3.7580    -0.7510     0.4550 c6         1 4YV       0.225300
      5 C8           4.7040    -1.7350    -0.2700 c6         1 4YV      -0.110900
      6 C9           3.0030     1.6530     0.0710 ca         1 4YV       0.428900
      7 C12          1.0410     3.4910     0.0420 ca         1 4YV      -0.353000
      8 C13          0.7570     2.1300     0.1560 ca         1 4YV       0.428900
      9 C3           6.1870    -1.3640    -0.0350 c6         1 4YV       0.170300
     10 O2           7.0840    -2.2320    -0.7610 os         1 4YV      -0.454000
     11 N6           4.0410     0.6750     0.0820 nh         1 4YV      -0.776300
     12 N10          3.3700     2.9480    -0.0350 nb         1 4YV      -0.277000
     13 N14          1.7330     1.2100     0.1620 nb         1 4YV      -0.272000
     14 N15         -0.5720     1.7340     0.2290 nu         1 4YV      -0.910800
     15 C16         -1.2400     0.5510     0.4680 ca         1 4YV       0.626900
     16 C17         -2.6300     0.4900     0.2620 ca         1 4YV      -0.242000
     17 C18         -3.2680    -0.7250     0.5360 ca         1 4YV      -0.017200
     18 C19         -2.5560    -1.7920     0.9890 ca         1 4YV      -0.025600
     19 C20         -1.1620    -1.6510     1.1790 ca         1 4YV       0.438900
     20 N21         -0.5130    -0.4860     0.9230 nb         1 4YV      -0.692000
     21 N22         -3.3750    -2.8950     1.1980 nc         1 4YV      -0.550100
     22 C23         -4.5910    -2.4210     0.8470 cd         1 4YV       0.412700
     23 N24         -4.5880    -1.0750     0.4260 na         1 4YV      -0.181600
     24 C25         -5.7310    -0.2720    -0.0160 c5         1 4YV       0.086300
     25 C26         -6.5160    -0.8600    -1.2140 c5         1 4YV      -0.095900
     26 C27         -7.7430     0.0930    -1.2980 c5         1 4YV      -0.082400
     27 C28         -7.9910     0.5530     0.1760 c5         1 4YV      -0.082400
     28 C29         -6.8900    -0.1690     1.0050 c5         1 4YV      -0.095900
     29 H1           6.2720     0.1830    -1.5600 hc         1 4YV       0.059200
     30 H2           7.4670     0.3760    -0.2790 hc         1 4YV       0.059200
     31 H3           5.7330     1.0800     1.3300 h1         1 4YV       0.064950
     32 H4           5.6820     2.0730    -0.1320 h1         1 4YV       0.064950
     33 H5           2.6850     4.9090    -0.1380 h4         1 4YV       0.015100
     34 H6           2.7300    -1.0460     0.2010 h1         1 4YV       0.064950
     35 H7           3.8670    -0.8800     1.5430 h1         1 4YV       0.064950
     36 H8           4.4960    -2.7500     0.0900 hc         1 4YV       0.059200
     37 H9           4.4840    -1.7270    -1.3460 hc         1 4YV       0.059200
     38 H10          0.2560     4.2400     0.0280 ha         1 4YV       0.127000
     39 H11          6.4150    -1.4500     1.0380 h1         1 4YV       0.026700
     40 H12          7.3400    -3.7190     0.6980 h1         1 4YV       0.026700
     41 H13          6.1770    -4.1220    -0.5920 h1         1 4YV       0.026700
     42 H14          7.9180    -4.1420    -0.9280 h1         1 4YV       0.026700
     43 H15         -1.2140     2.4990     0.0590 hn         1 4YV       0.497000
     44 H16         -3.1800     1.3530    -0.0990 ha         1 4YV       0.122000
     45 H17         -0.5580    -2.4820     1.5440 h4         1 4YV       0.035100
     46 H18         -5.5120    -2.9910     0.8720 h5         1 4YV       0.063800
     47 H19         -5.3760     0.7360    -0.2700 h1         1 4YV       0.069700
     48 H20         -5.9270    -0.8590    -2.1390 hc         1 4YV       0.058450
     49 H21         -6.8280    -1.8950    -1.0310 hc         1 4YV       0.058450
     50 H22         -7.5290     0.9550    -1.9400 hc         1 4YV       0.049950
     51 H23         -8.6170    -0.4110    -1.7260 hc         1 4YV       0.049950
     52 H24         -7.8960     1.6420     0.2610 hc         1 4YV       0.049950
     53 H25         -8.9960     0.2940     0.5270 hc         1 4YV       0.049950
     54 H26         -7.2290    -1.1570     1.3410 hc         1 4YV       0.058450
     55 H27         -6.6080     0.3970     1.9000 hc         1 4YV       0.058450
     56 C1           7.1280    -3.6190    -0.3740 c3         1 4YV       0.148900
@<TRIPOS>BOND
     1     1     2 1   
     2     1     9 1   
     3     1    29 1   
     4     1    30 1   
     5     2    11 1   
     6     2    31 1   
     7     2    32 1   
     8     3     7 ar  
     9     3    12 ar  
    10     3    33 1   
    11     4     5 1   
    12     4    11 1   
    13     4    34 1   
    14     4    35 1   
    15     5     9 1   
    16     5    36 1   
    17     5    37 1   
    18     6    11 1   
    19     6    12 ar  
    20     6    13 ar  
    21     7     8 ar  
    22     7    38 1   
    23     8    13 ar  
    24     8    14 1   
    25     9    10 1   
    26     9    39 1   
    27    10    56 1   
    28    14    15 1   
    29    14    43 1   
    30    15    16 ar  
    31    15    20 ar  
    32    16    17 ar  
    33    16    44 1   
    34    17    18 ar  
    35    17    23 1   
    36    18    19 ar  
    37    18    21 1   
    38    19    20 ar  
    39    19    45 1   
    40    21    22 2   
    41    22    23 1   
    42    22    46 1   
    43    23    24 1   
    44    24    25 1   
    45    24    28 1   
    46    24    47 1   
    47    25    26 1   
    48    25    48 1   
    49    25    49 1   
    50    26    27 1   
    51    26    50 1   
    52    26    51 1   
    53    27    28 1   
    54    27    52 1   
    55    27    53 1   
    56    28    54 1   
    57    28    55 1   
    58    40    56 1   
    59    41    56 1   
    60    42    56 1   
@<TRIPOS>SUBSTRUCTURE
     1 4YV         1 TEMP              0 ****  ****    0 ROOT
