@<TRIPOS>MOLECULE
4YV
   56    60     1     0     0
SMALL
bcc


@<TRIPOS>ATOM
      1 C4           6.2340    -0.0180    -0.1850 c6         1 4YV      -0.110900
      2 C5           5.4160     0.9390     0.6750 c6         1 4YV       0.225300
      3 C11          2.6480     3.7590    -0.4140 ca         1 4YV       0.500200
      4 C7           3.6030    -0.6850     0.8360 c6         1 4YV       0.225300
      5 C8           4.3810    -1.6760    -0.0230 c6         1 4YV      -0.110900
      6 C9           3.1060     1.6340     0.1880 ca         1 4YV       0.954900
      7 C12          1.3040     3.4910    -0.5060 ca         1 4YV      -0.501600
      8 C13          0.9290     2.1660    -0.2040 ca         1 4YV       0.757200
      9 C3           5.8840    -1.4620     0.1360 c6         1 4YV       0.147100
     10 O2           6.6570    -2.2940    -0.6990 os         1 4YV      -0.407600
     11 N6           3.9980     0.6770     0.5380 nh         1 4YV      -0.776300
     12 N10          3.5680     2.8610    -0.0730 nb         1 4YV      -0.803000
     13 N14          1.8220     1.2620     0.1390 nb         1 4YV      -0.798000
     14 N15         -0.3980     1.8490    -0.2700 nu         1 4YV      -0.855600
     15 C16         -1.0880     0.6670    -0.0210 ca         1 4YV       0.692200
     16 C17         -2.4820     0.7500    -0.0220 ca         1 4YV      -0.325300
     17 C18         -3.1490    -0.4410     0.2060 ca         1 4YV      -0.017200
     18 C19         -2.4490    -1.6380     0.4280 ca         1 4YV      -0.090900
     19 C20         -1.0640    -1.5900     0.4070 ca         1 4YV       0.504200
     20 N21         -0.4090    -0.4630     0.1830 nb         1 4YV      -0.692000
     21 N22         -3.3310    -2.6760     0.6230 nc         1 4YV      -0.550100
     22 C23         -4.5020    -2.1230     0.5240 cd         1 4YV       0.412700
     23 N24         -4.4680    -0.7790     0.2810 na         1 4YV      -0.152300
     24 C25         -5.6110     0.0960     0.0550 c5         1 4YV       0.057000
     25 C26         -6.4090    -0.2770    -1.2140 c5         1 4YV      -0.095900
     26 C27         -7.7040    -0.9020    -0.7040 c5         1 4YV      -0.082400
     27 C28         -8.0010    -0.0830     0.5490 c5         1 4YV      -0.082400
     28 C29         -6.6300     0.0560     1.2160 c5         1 4YV      -0.095900
     29 H1           6.0400     0.1830    -1.2430 hc         1 4YV       0.059200
     30 H2           7.2970     0.1630    -0.0030 hc         1 4YV       0.059200
     31 H3           5.7030     0.8210     1.7270 h1         1 4YV       0.064950
     32 H4           5.6190     1.9680     0.3970 h1         1 4YV       0.064950
     33 H5           3.0130     4.7580    -0.6280 h4         1 4YV       0.015100
     34 H6           2.5340    -0.7880     0.6700 h1         1 4YV       0.064950
     35 H7           3.7910    -0.8900     1.8970 h1         1 4YV       0.064950
     36 H8           4.0920    -2.6870     0.2720 hc         1 4YV       0.059200
     37 H9           4.1030    -1.5480    -1.0740 hc         1 4YV       0.059200
     38 H10          0.5880     4.2510    -0.7830 ha         1 4YV       0.145000
     39 H11          6.1470    -1.6550     1.1910 h1         1 4YV       0.026700
     40 H12          6.9540    -3.7740     0.7330 h1         1 4YV       0.026700
     41 H13          5.7080    -4.1450    -0.4700 h1         1 4YV       0.026700
     42 H14          7.4130    -4.1560    -0.9350 h1         1 4YV       0.026700
     43 H15         -0.9930     2.6300    -0.4960 hn         1 4YV       0.441800
     44 H16         -2.9950     1.6880    -0.1960 ha         1 4YV       0.140000
     45 H17         -0.4680    -2.4820     0.5700 h4         1 4YV       0.035100
     46 H18         -5.4380    -2.6550     0.6200 h5         1 4YV       0.063800
     47 H19         -5.1960     1.0970    -0.0470 h1         1 4YV       0.069700
     48 H20         -6.6420     0.6400    -1.7600 hc         1 4YV       0.058450
     49 H21         -5.8380    -0.9160    -1.8890 hc         1 4YV       0.058450
     50 H22         -8.5060    -0.8700    -1.4420 hc         1 4YV       0.049950
     51 H23         -7.5520    -1.9520    -0.4360 hc         1 4YV       0.049950
     52 H24         -8.3900     0.8990     0.2660 hc         1 4YV       0.049950
     53 H25         -8.7350    -0.5480     1.2080 hc         1 4YV       0.049950
     54 H26         -6.4460    -0.8100     1.8560 hc         1 4YV       0.058450
     55 H27         -6.5500     0.9360     1.8530 hc         1 4YV       0.058450
     56 C1           6.6720    -3.6470    -0.3190 c3         1 4YV       0.125700
@<TRIPOS>BOND
     1     1     2 1   
     2     1     9 1   
     3     1    29 1   
     4     1    30 1   
     5     2    11 1   
     6     2    31 1   
     7     2    32 1   
     8     3     7 ar  
     9     3    12 ar  
    10     3    33 1   
    11     4     5 1   
    12     4    11 1   
    13     4    34 1   
    14     4    35 1   
    15     5     9 1   
    16     5    36 1   
    17     5    37 1   
    18     6    11 1   
    19     6    12 ar  
    20     6    13 ar  
    21     7     8 ar  
    22     7    38 1   
    23     8    13 ar  
    24     8    14 1   
    25     9    10 1   
    26     9    39 1   
    27    10    56 1   
    28    14    15 1   
    29    14    43 1   
    30    15    16 ar  
    31    15    20 ar  
    32    16    17 ar  
    33    16    44 1   
    34    17    18 ar  
    35    17    23 1   
    36    18    19 ar  
    37    18    21 1   
    38    19    20 ar  
    39    19    45 1   
    40    21    22 2   
    41    22    23 1   
    42    22    46 1   
    43    23    24 1   
    44    24    25 1   
    45    24    28 1   
    46    24    47 1   
    47    25    26 1   
    48    25    48 1   
    49    25    49 1   
    50    26    27 1   
    51    26    50 1   
    52    26    51 1   
    53    27    28 1   
    54    27    52 1   
    55    27    53 1   
    56    28    54 1   
    57    28    55 1   
    58    40    56 1   
    59    41    56 1   
    60    42    56 1   
@<TRIPOS>SUBSTRUCTURE
     1 4YV         1 TEMP              0 ****  ****    0 ROOT
