@<TRIPOS>MOLECULE
4YW
   57    60     1     0     0
SMALL
bcc


@<TRIPOS>ATOM
      1 C4           3.0430     1.7540     0.4470 ca         1 4YW      -0.072900
      2 C5           1.7400     1.5030     0.8570 ca         1 4YW       0.493200
      3 C11          6.3270     0.5100    -0.4790 c3         1 4YW       0.065000
      4 C7           2.1210    -0.7570     0.8330 ca         1 4YW       0.673200
      5 C8           3.4420    -0.6360     0.4160 ca         1 4YW      -0.289300
      6 C9           3.9000     0.6630     0.2400 ca         1 4YW      -0.027200
      7 C12          6.8530    -0.2910     0.7040 c3         1 4YW      -0.107600
      8 C13          6.1540    -0.3310    -1.7360 c3         1 4YW      -0.107600
      9 N3           3.7020     2.9310     0.1970 nc         1 4YW      -0.554100
     10 C1           5.9870     3.5280    -0.5110 c3         1 4YW      -0.114400
     11 C2           4.9080     2.5760    -0.1470 cd         1 4YW       0.419800
     12 N6           1.3040     0.2730     1.0600 nb         1 4YW      -0.683000
     13 N10          5.0920     1.2140    -0.1390 na         1 4YW      -0.153300
     14 N14          1.6230    -2.0400     1.0890 nu         1 4YW      -0.868600
     15 C15          0.4160    -2.5300     0.6960 ca         1 4YW       0.758200
     16 C16          0.0080    -3.8060     1.1240 ca         1 4YW      -0.483600
     17 C17         -1.2250    -4.2130     0.6760 ca         1 4YW       0.496200
     18 N18         -2.0170    -3.4750    -0.0980 nb         1 4YW      -0.796000
     19 C19         -1.5300    -2.2840    -0.4530 ca         1 4YW       0.932900
     20 N20         -0.3430    -1.7960    -0.0980 nb         1 4YW      -0.807000
     21 N21         -2.2910    -1.5050    -1.2760 nh         1 4YW      -0.747300
     22 C22         -1.9830    -0.0960    -1.4320 c6         1 4YW       0.220300
     23 C23         -2.7260     0.7410    -0.3930 c6         1 4YW      -0.091400
     24 C24         -4.2260     0.4560    -0.4880 c6         1 4YW      -0.153900
     25 C25         -4.5320    -1.0370    -0.4050 c6         1 4YW      -0.091400
     26 C26         -3.7010    -1.7840    -1.4480 c6         1 4YW       0.220300
     27 S27         -5.0670     1.3850     0.8090 s6         1 4YW       0.986000
     28 O28         -4.7020     0.8170     2.1100 o          1 4YW      -0.586800
     29 O29         -4.8000     2.8100     0.5930 o          1 4YW      -0.586800
     30 C30         -6.8030     1.1030     0.5380 c3         1 4YW      -0.224300
     31 H1           1.0450     2.3160     1.0410 h4         1 4YW       0.038100
     32 H2           7.0580     1.2890    -0.6950 h1         1 4YW       0.061700
     33 H3           4.0470    -1.5150     0.2450 ha         1 4YW       0.143000
     34 H4           7.8430    -0.6770     0.4660 hc         1 4YW       0.048700
     35 H5           6.9370     0.3310     1.5940 hc         1 4YW       0.048700
     36 H6           6.2190    -1.1450     0.9430 hc         1 4YW       0.048700
     37 H7           5.4600    -1.1580    -1.5850 hc         1 4YW       0.048700
     38 H8           5.7890     0.2750    -2.5660 hc         1 4YW       0.048700
     39 H9           7.1150    -0.7550    -2.0260 hc         1 4YW       0.048700
     40 H10          6.8440     3.4410     0.1590 hc         1 4YW       0.059367
     41 H11          6.3460     3.3640    -1.5280 hc         1 4YW       0.059367
     42 H12          5.6030     4.5420    -0.4440 hc         1 4YW       0.059367
     43 H13          2.2670    -2.7050     1.4880 hn         1 4YW       0.448800
     44 H14          0.6150    -4.4220     1.7720 ha         1 4YW       0.147000
     45 H15         -1.6090    -5.1860     0.9630 h4         1 4YW       0.016100
     46 H16         -0.9130     0.0620    -1.3380 h1         1 4YW       0.069700
     47 H17         -2.2830     0.2080    -2.4380 h1         1 4YW       0.069700
     48 H18         -2.3470     0.4860     0.6010 hc         1 4YW       0.069700
     49 H19         -2.5230     1.7980    -0.5670 hc         1 4YW       0.069700
     50 H20         -4.6180     0.8650    -1.4260 h1         1 4YW       0.087700
     51 H21         -4.2900    -1.4210     0.5890 hc         1 4YW       0.069700
     52 H22         -5.5900    -1.2310    -0.5900 hc         1 4YW       0.069700
     53 H23         -3.9920    -1.4610    -2.4520 h1         1 4YW       0.069700
     54 H24         -3.8820    -2.8520    -1.3810 h1         1 4YW       0.069700
     55 H25         -7.0480     0.0580     0.7130 h1         1 4YW       0.102033
     56 H26         -7.3360     1.7280     1.2530 h1         1 4YW       0.102033
     57 H27         -7.0670     1.3940    -0.4760 h1         1 4YW       0.102033
@<TRIPOS>BOND
     1     1     2 ar  
     2     1     6 ar  
     3     1     9 1   
     4     2    12 ar  
     5     2    31 1   
     6     3     7 1   
     7     3     8 1   
     8     3    13 1   
     9     3    32 1   
    10     4     5 ar  
    11     4    12 ar  
    12     4    14 1   
    13     5     6 ar  
    14     5    33 1   
    15     6    13 1   
    16     7    34 1   
    17     7    35 1   
    18     7    36 1   
    19     8    37 1   
    20     8    38 1   
    21     8    39 1   
    22     9    11 2   
    23    10    11 1   
    24    10    40 1   
    25    10    41 1   
    26    10    42 1   
    27    11    13 1   
    28    14    15 1   
    29    14    43 1   
    30    15    16 ar  
    31    15    20 ar  
    32    16    17 ar  
    33    16    44 1   
    34    17    18 ar  
    35    17    45 1   
    36    18    19 ar  
    37    19    20 ar  
    38    19    21 1   
    39    21    22 1   
    40    21    26 1   
    41    22    23 1   
    42    22    46 1   
    43    22    47 1   
    44    23    24 1   
    45    23    48 1   
    46    23    49 1   
    47    24    25 1   
    48    24    27 1   
    49    24    50 1   
    50    25    26 1   
    51    25    51 1   
    52    25    52 1   
    53    26    53 1   
    54    26    54 1   
    55    27    28 2   
    56    27    29 2   
    57    27    30 1   
    58    30    55 1   
    59    30    56 1   
    60    30    57 1   
@<TRIPOS>SUBSTRUCTURE
     1 4YW         1 TEMP              0 ****  ****    0 ROOT
