@<TRIPOS>MOLECULE
4YW
   57    60     1     0     0
SMALL
No Charge or Current Charge


@<TRIPOS>ATOM
      1 C4           3.6460     1.7020    -0.8790 ca         1 4YW      -0.007600
      2 C5           2.2870     1.4390    -1.1650 ca         1 4YW       0.427900
      3 C11          6.8840     0.4380     0.2760 c3         1 4YW       0.094300
      4 C7           2.5300    -0.7740    -0.5310 ca         1 4YW       0.607900
      5 C8           3.8940    -0.5950    -0.2340 ca         1 4YW      -0.206000
      6 C9           4.4340     0.6860    -0.4190 ca         1 4YW      -0.027200
      7 C12          6.7090    -0.0620     1.7270 c3         1 4YW      -0.107600
      8 C13          7.3360    -0.6770    -0.6930 c3         1 4YW      -0.107600
      9 N3           4.3570     2.8930    -0.9990 nc         1 4YW      -0.554100
     10 C1           6.7230     3.5190    -0.5490 c3         1 4YW      -0.114400
     11 C2           5.5890     2.5320    -0.5910 cd         1 4YW       0.419800
     12 N6           1.7380     0.2080    -0.9950 nb         1 4YW      -0.683000
     13 N10          5.7010     1.1790    -0.2190 na         1 4YW      -0.182600
     14 N14          1.9580    -2.0230    -0.3860 nu         1 4YW      -0.923800
     15 C15          0.6650    -2.5290    -0.3800 ca         1 4YW       0.429900
     16 C16          0.4860    -3.9130    -0.3890 ca         1 4YW      -0.335000
     17 C17         -0.8280    -4.3950    -0.3570 ca         1 4YW       0.167900
     18 N18         -1.8790    -3.5580    -0.3140 nb         1 4YW      -0.270000
     19 C19         -1.6130    -2.2340    -0.3020 ca         1 4YW       0.406900
     20 N20         -0.3800    -1.6900    -0.3260 nb         1 4YW      -0.281000
     21 N21         -2.7230    -1.3400    -0.2450 nh         1 4YW      -0.747300
     22 C22         -2.5530     0.1300    -0.5020 c6         1 4YW       0.220300
     23 C23         -3.5650     0.9750     0.3100 c6         1 4YW      -0.091400
     24 C24         -5.0320     0.5280     0.0490 c6         1 4YW      -0.264700
     25 C25         -5.1550    -0.9950     0.3450 c6         1 4YW      -0.091400
     26 C26         -4.1270    -1.8240    -0.4650 c6         1 4YW       0.220300
     27 S27         -6.2440     1.5490     0.9830 s6         1 4YW       1.066000
     28 O28         -6.0830     1.2610     2.4130 o          1 4YW      -0.516000
     29 O29         -6.1150     2.9360     0.5170 o          1 4YW      -0.516000
     30 C30         -7.8770     0.9830     0.5040 c3         1 4YW      -0.335100
     31 H1           1.6300     2.2240    -1.5370 h4         1 4YW       0.038100
     32 H2           7.7110     1.1580     0.3080 h1         1 4YW       0.061700
     33 H3           4.4910    -1.4240     0.1280 ha         1 4YW       0.125000
     34 H4           7.6450    -0.4960     2.0970 hc         1 4YW       0.048700
     35 H5           6.4370     0.7690     2.3880 hc         1 4YW       0.048700
     36 H6           5.9290    -0.8270     1.8010 hc         1 4YW       0.048700
     37 H7           6.5930    -1.4790    -0.7640 hc         1 4YW       0.048700
     38 H8           7.4960    -0.2680    -1.6980 hc         1 4YW       0.048700
     39 H9           8.2800    -1.1190    -0.3530 hc         1 4YW       0.048700
     40 H10          7.1130     3.6190     0.4700 hc         1 4YW       0.059367
     41 H11          7.5440     3.1940    -1.1980 hc         1 4YW       0.059367
     42 H12          6.4030     4.5120    -0.8850 hc         1 4YW       0.059367
     43 H13          2.6570    -2.7430    -0.2400 hn         1 4YW       0.504000
     44 H14          1.3280    -4.5980    -0.4220 ha         1 4YW       0.129000
     45 H15         -1.0440    -5.4620    -0.3650 h4         1 4YW       0.016100
     46 H16         -1.5460     0.4810    -0.2310 h1         1 4YW       0.069700
     47 H17         -2.6850     0.3390    -1.5740 h1         1 4YW       0.069700
     48 H18         -3.3280     0.8840     1.3790 hc         1 4YW       0.069700
     49 H19         -3.4360     2.0350     0.0510 hc         1 4YW       0.069700
     50 H20         -5.2790     0.7110    -1.0050 h1         1 4YW       0.087700
     51 H21         -5.0010    -1.1860     1.4160 hc         1 4YW       0.069700
     52 H22         -6.1650    -1.3560     0.1060 hc         1 4YW       0.069700
     53 H23         -4.3780    -1.7650    -1.5350 h1         1 4YW       0.069700
     54 H24         -4.2500    -2.8750    -0.1660 h1         1 4YW       0.069700
     55 H25         -7.9910    -0.0500     0.8490 h1         1 4YW       0.102033
     56 H26         -8.6080     1.6400     0.9860 h1         1 4YW       0.102033
     57 H27         -7.9460     1.0490    -0.5870 h1         1 4YW       0.102033
@<TRIPOS>BOND
     1     1     2 ar  
     2     1     6 ar  
     3     1     9 1   
     4     2    12 ar  
     5     2    31 1   
     6     3     7 1   
     7     3     8 1   
     8     3    13 1   
     9     3    32 1   
    10     4     5 ar  
    11     4    12 ar  
    12     4    14 1   
    13     5     6 ar  
    14     5    33 1   
    15     6    13 1   
    16     7    34 1   
    17     7    35 1   
    18     7    36 1   
    19     8    37 1   
    20     8    38 1   
    21     8    39 1   
    22     9    11 2   
    23    10    11 1   
    24    10    40 1   
    25    10    41 1   
    26    10    42 1   
    27    11    13 1   
    28    14    15 1   
    29    14    43 1   
    30    15    16 ar  
    31    15    20 ar  
    32    16    17 ar  
    33    16    44 1   
    34    17    18 ar  
    35    17    45 1   
    36    18    19 ar  
    37    19    20 ar  
    38    19    21 1   
    39    21    22 1   
    40    21    26 1   
    41    22    23 1   
    42    22    46 1   
    43    22    47 1   
    44    23    24 1   
    45    23    48 1   
    46    23    49 1   
    47    24    25 1   
    48    24    27 1   
    49    24    50 1   
    50    25    26 1   
    51    25    51 1   
    52    25    52 1   
    53    26    53 1   
    54    26    54 1   
    55    27    28 2   
    56    27    29 2   
    57    27    30 1   
    58    30    55 1   
    59    30    56 1   
    60    30    57 1   
@<TRIPOS>SUBSTRUCTURE
     1 4YW         1 TEMP              0 ****  ****    0 ROOT
