@<TRIPOS>MOLECULE
4YX
   63    66     1     0     0
SMALL
No Charge or Current Charge


@<TRIPOS>ATOM
      1 C4         -53.0950     1.0280   -19.6010 ca         1 4YX      -0.013600
      2 C5         -54.3980     1.5610   -19.7600 ca         1 4YX       0.434900
      3 C11        -50.1420    -0.3620   -21.2450 c3         1 4YX       0.095300
      4 C7         -54.2600     1.3300   -22.0500 ca         1 4YX       0.601900
      5 C8         -52.9490     0.8190   -21.9850 ca         1 4YX      -0.190000
      6 C9         -52.3880     0.6730   -20.7110 ca         1 4YX      -0.028200
      7 C12        -48.7070     0.1230   -20.9440 c3         1 4YX      -0.106600
      8 C13        -50.2330    -1.8990   -21.3420 c3         1 4YX      -0.106600
      9 N3         -52.3720     0.7820   -18.4370 nc         1 4YX      -0.561100
     10 C1         -50.1410    -0.1980   -17.9740 c3         1 4YX      -0.108400
     11 C2         -51.2220     0.2630   -18.9140 cd         1 4YX       0.424800
     12 N6         -54.9750     1.7130   -20.9850 nb         1 4YX      -0.746000
     13 N10        -51.1640     0.1930   -20.3240 na         1 4YX      -0.194600
     14 N14        -54.9790     1.5260   -23.1950 nu         1 4YX      -0.905800
     15 C15        -54.8940     1.0530   -24.4900 ca         1 4YX       0.429900
     16 C16        -55.7510     1.5470   -25.4720 ca         1 4YX      -0.337000
     17 C17        -55.6250     1.0130   -26.7620 ca         1 4YX       0.171900
     18 N18        -54.7170     0.0590   -27.0410 nb         1 4YX      -0.273000
     19 C19        -53.9370    -0.3590   -26.0210 ca         1 4YX       0.423900
     20 N20        -53.9990     0.0970   -24.7580 nb         1 4YX      -0.327000
     21 N21        -52.9720    -1.3700   -26.2950 nh         1 4YX      -0.775300
     22 C22        -52.4560    -1.5820   -27.6860 c6         1 4YX       0.230300
     23 C23        -51.9890    -3.0400   -27.9160 c6         1 4YX      -0.094400
     24 C24        -50.9340    -3.4880   -26.8700 c6         1 4YX       0.182000
     25 C25        -51.5630    -3.2850   -25.4640 c6         1 4YX      -0.094400
     26 C26        -52.0140    -1.8260   -25.2350 c6         1 4YX       0.230300
     27 C27        -50.5420    -4.9930   -27.0780 c3         1 4YX      -0.098400
     28 C28        -49.8090    -5.3230   -28.3990 c3         1 4YX       0.152800
     29 N29        -49.4810    -6.7600   -28.4870 n8         1 4YX      -1.003200
     30 O30        -49.7440    -2.6700   -27.0510 os         1 4YX      -0.471000
     31 C31        -48.6250    -2.8160   -26.1490 c3         1 4YX       0.149900
     32 H1         -54.9900     1.8610   -18.8960 h4         1 4YX       0.035100
     33 H2         -50.3720     0.0260   -22.2450 h1         1 4YX       0.066700
     34 H3         -52.3990     0.5580   -22.8780 ha         1 4YX       0.159000
     35 H4         -48.6840     1.2130   -20.8250 hc         1 4YX       0.048200
     36 H5         -48.3050    -0.3370   -20.0350 hc         1 4YX       0.048200
     37 H6         -48.0380    -0.1390   -21.7720 hc         1 4YX       0.048200
     38 H7         -51.2440    -2.2050   -21.6370 hc         1 4YX       0.048200
     39 H8         -49.5310    -2.2800   -22.0930 hc         1 4YX       0.048200
     40 H9         -49.9980    -2.3700   -20.3810 hc         1 4YX       0.048200
     41 H10        -50.5140    -0.2670   -16.9460 hc         1 4YX       0.058700
     42 H11        -49.7670    -1.1880   -18.2550 hc         1 4YX       0.058700
     43 H12        -49.3000     0.5040   -17.9750 hc         1 4YX       0.058700
     44 H13        -55.8160     2.0600   -22.9980 hn         1 4YX       0.514000
     45 H14        -56.4850     2.3160   -25.2560 ha         1 4YX       0.134000
     46 H15        -56.2560     1.3500   -27.5830 h4         1 4YX       0.019100
     47 H16        -51.6150    -0.8990   -27.8780 h1         1 4YX       0.061200
     48 H17        -53.2240    -1.3630   -28.4410 h1         1 4YX       0.061200
     49 H18        -52.8620    -3.7060   -27.8780 hc         1 4YX       0.056950
     50 H19        -51.5820    -3.1210   -28.9310 hc         1 4YX       0.056950
     51 H20        -52.4370    -3.9430   -25.3560 hc         1 4YX       0.056950
     52 H21        -50.8680    -3.5890   -24.6710 hc         1 4YX       0.056950
     53 H22        -51.1320    -1.1680   -25.2150 h1         1 4YX       0.061200
     54 H23        -52.4700    -1.7870   -24.2350 h1         1 4YX       0.061200
     55 H24        -51.4510    -5.6050   -27.0340 hc         1 4YX       0.051200
     56 H25        -49.9240    -5.3360   -26.2400 hc         1 4YX       0.051200
     57 H26        -48.8780    -4.7450   -28.4680 h1         1 4YX       0.036700
     58 H27        -50.4440    -5.0610   -29.2570 h1         1 4YX       0.036700
     59 H28        -48.9460    -6.9300   -29.3480 hn         1 4YX       0.391500
     60 H29        -48.8150    -6.9960   -27.7410 hn         1 4YX       0.391500
     61 H31        -47.8150    -2.1380   -26.4460 h1         1 4YX       0.027033
     62 H32        -48.9060    -2.5630   -25.1190 h1         1 4YX       0.027033
     63 H33        -48.2240    -3.8370   -26.1640 h1         1 4YX       0.027033
@<TRIPOS>BOND
     1     1     2 ar  
     2     1     6 ar  
     3     1     9 1   
     4     2    12 ar  
     5     2    32 1   
     6     3     7 1   
     7     3     8 1   
     8     3    13 1   
     9     3    33 1   
    10     4     5 ar  
    11     4    12 ar  
    12     4    14 1   
    13     5     6 ar  
    14     5    34 1   
    15     6    13 1   
    16     7    35 1   
    17     7    36 1   
    18     7    37 1   
    19     8    38 1   
    20     8    39 1   
    21     8    40 1   
    22     9    11 2   
    23    10    11 1   
    24    10    41 1   
    25    10    42 1   
    26    10    43 1   
    27    11    13 1   
    28    14    15 1   
    29    14    44 1   
    30    15    16 ar  
    31    15    20 ar  
    32    16    17 ar  
    33    16    45 1   
    34    17    18 ar  
    35    17    46 1   
    36    18    19 ar  
    37    19    20 ar  
    38    19    21 1   
    39    21    22 1   
    40    21    26 1   
    41    22    23 1   
    42    22    47 1   
    43    22    48 1   
    44    23    24 1   
    45    23    49 1   
    46    23    50 1   
    47    24    25 1   
    48    24    27 1   
    49    24    30 1   
    50    25    26 1   
    51    25    51 1   
    52    25    52 1   
    53    26    53 1   
    54    26    54 1   
    55    27    28 1   
    56    27    55 1   
    57    27    56 1   
    58    28    29 1   
    59    28    57 1   
    60    28    58 1   
    61    29    59 1   
    62    29    60 1   
    63    30    31 1   
    64    31    61 1   
    65    31    62 1   
    66    31    63 1   
@<TRIPOS>SUBSTRUCTURE
     1 4YX         1 TEMP              0 ****  ****    0 ROOT
