@<TRIPOS>MOLECULE
4YX
   63    66     1     0     0
SMALL
abcg2


@<TRIPOS>ATOM
      1 C4         -53.1200     0.8930   -19.6490 ca         1 4YX      -0.013600
      2 C5         -54.3850     1.4570   -19.7580 ca         1 4YX       0.434900
      3 C11        -50.2790    -0.5790   -21.3920 c3         1 4YX       0.095300
      4 C7         -54.3340     1.2210   -22.0650 ca         1 4YX       0.601900
      5 C8         -53.0530     0.6690   -22.0760 ca         1 4YX      -0.190000
      6 C9         -52.4620     0.5120   -20.8320 ca         1 4YX      -0.028200
      7 C12        -48.8550    -0.0770   -21.1790 c3         1 4YX      -0.106600
      8 C13        -50.3830    -2.1010   -21.4120 c3         1 4YX      -0.106600
      9 N3         -52.3170     0.6050   -18.5560 nc         1 4YX      -0.561100
     10 C1         -50.0800    -0.3800   -18.2140 c3         1 4YX      -0.108400
     11 C2         -51.2200     0.0750   -19.0530 cd         1 4YX       0.424800
     12 N6         -54.9740     1.6130   -20.9430 nb         1 4YX      -0.746000
     13 N10        -51.2460     0.0040   -20.4400 na         1 4YX      -0.194600
     14 N14        -55.0830     1.4490   -23.2230 nu         1 4YX      -0.905800
     15 C15        -54.9070     0.9970   -24.5030 ca         1 4YX       0.429900
     16 C16        -55.8230     1.3930   -25.5000 ca         1 4YX      -0.337000
     17 C17        -55.5730     0.9150   -26.7650 ca         1 4YX       0.171900
     18 N18        -54.5490     0.1090   -27.0770 nb         1 4YX      -0.273000
     19 C19        -53.7450    -0.2360   -26.0530 ca         1 4YX       0.423900
     20 N20        -53.8830     0.1990   -24.7850 nb         1 4YX      -0.327000
     21 N21        -52.7200    -1.1000   -26.2980 nh         1 4YX      -0.775300
     22 C22        -52.3210    -1.4490   -27.6580 c6         1 4YX       0.230300
     23 C23        -51.9110    -2.9150   -27.7590 c6         1 4YX      -0.094400
     24 C24        -50.8380    -3.3040   -26.7380 c6         1 4YX       0.182000
     25 C25        -51.3340    -2.8920   -25.3470 c6         1 4YX      -0.094400
     26 C26        -51.7320    -1.4240   -25.2720 c6         1 4YX       0.230300
     27 C27        -50.5480    -4.8100   -26.7620 c3         1 4YX      -0.098400
     28 C28        -49.9930    -5.3490   -28.0750 c3         1 4YX       0.152800
     29 N29        -49.7000    -6.7850   -27.9450 n8         1 4YX      -1.003200
     30 O30        -49.6780    -2.5340   -27.1240 os         1 4YX      -0.471000
     31 C31        -48.5150    -2.6610   -26.3220 c3         1 4YX       0.149900
     32 H1         -54.9360     1.7860   -18.8830 h4         1 4YX       0.035100
     33 H2         -50.6090    -0.2070   -22.3610 h1         1 4YX       0.066700
     34 H3         -52.5850     0.3880   -23.0000 ha         1 4YX       0.159000
     35 H4         -48.8350     1.0100   -21.0820 hc         1 4YX       0.048200
     36 H5         -48.3900    -0.5170   -20.2980 hc         1 4YX       0.048200
     37 H6         -48.2550    -0.3550   -22.0460 hc         1 4YX       0.048200
     38 H7         -51.4110    -2.4130   -21.6030 hc         1 4YX       0.048200
     39 H8         -49.7510    -2.4990   -22.2070 hc         1 4YX       0.048200
     40 H9         -50.0560    -2.5340   -20.4660 hc         1 4YX       0.048200
     41 H10        -50.3970    -0.3750   -17.1730 hc         1 4YX       0.058700
     42 H11        -49.7550    -1.3850   -18.4810 hc         1 4YX       0.058700
     43 H12        -49.2230     0.2870   -18.3200 hc         1 4YX       0.058700
     44 H13        -55.9260     1.9760   -23.0510 hn         1 4YX       0.514000
     45 H14        -56.6580     2.0440   -25.2850 ha         1 4YX       0.134000
     46 H15        -56.2270     1.1900   -27.5870 h4         1 4YX       0.019100
     47 H16        -51.4840    -0.8100   -27.9610 h1         1 4YX       0.061200
     48 H17        -53.1530    -1.2470   -28.3240 h1         1 4YX       0.061200
     49 H18        -52.7860    -3.5500   -27.5970 hc         1 4YX       0.056950
     50 H19        -51.5460    -3.1040   -28.7700 hc         1 4YX       0.056950
     51 H20        -52.2010    -3.5100   -25.1020 hc         1 4YX       0.056950
     52 H21        -50.5770    -3.0980   -24.5900 hc         1 4YX       0.056950
     53 H22        -50.8500    -0.7860   -25.4000 h1         1 4YX       0.061200
     54 H23        -52.1580    -1.2100   -24.2990 h1         1 4YX       0.061200
     55 H24        -51.4750    -5.3360   -26.5210 hc         1 4YX       0.051200
     56 H25        -49.8450    -5.0480   -25.9570 hc         1 4YX       0.051200
     57 H26        -49.1140    -4.7630   -28.3680 h1         1 4YX       0.036700
     58 H27        -50.7310    -5.2330   -28.8700 h1         1 4YX       0.036700
     59 H28        -49.3370    -7.1400   -28.8240 hn         1 4YX       0.391500
     60 H29        -48.9550    -6.9150   -27.2660 hn         1 4YX       0.391500
     61 H31        -47.7650    -2.0080   -26.7660 h1         1 4YX       0.027033
     62 H32        -48.6870    -2.3440   -25.2900 h1         1 4YX       0.027033
     63 H33        -48.1290    -3.6840   -26.3150 h1         1 4YX       0.027033
@<TRIPOS>BOND
     1     1     2 ar  
     2     1     6 ar  
     3     1     9 1   
     4     2    12 ar  
     5     2    32 1   
     6     3     7 1   
     7     3     8 1   
     8     3    13 1   
     9     3    33 1   
    10     4     5 ar  
    11     4    12 ar  
    12     4    14 1   
    13     5     6 ar  
    14     5    34 1   
    15     6    13 1   
    16     7    35 1   
    17     7    36 1   
    18     7    37 1   
    19     8    38 1   
    20     8    39 1   
    21     8    40 1   
    22     9    11 2   
    23    10    11 1   
    24    10    41 1   
    25    10    42 1   
    26    10    43 1   
    27    11    13 1   
    28    14    15 1   
    29    14    44 1   
    30    15    16 ar  
    31    15    20 ar  
    32    16    17 ar  
    33    16    45 1   
    34    17    18 ar  
    35    17    46 1   
    36    18    19 ar  
    37    19    20 ar  
    38    19    21 1   
    39    21    22 1   
    40    21    26 1   
    41    22    23 1   
    42    22    47 1   
    43    22    48 1   
    44    23    24 1   
    45    23    49 1   
    46    23    50 1   
    47    24    25 1   
    48    24    27 1   
    49    24    30 1   
    50    25    26 1   
    51    25    51 1   
    52    25    52 1   
    53    26    53 1   
    54    26    54 1   
    55    27    28 1   
    56    27    55 1   
    57    27    56 1   
    58    28    29 1   
    59    28    57 1   
    60    28    58 1   
    61    29    59 1   
    62    29    60 1   
    63    30    31 1   
    64    31    61 1   
    65    31    62 1   
    66    31    63 1   
@<TRIPOS>SUBSTRUCTURE
     1 4YX         1 TEMP              0 ****  ****    0 ROOT
