@<TRIPOS>MOLECULE
4YY
   69    72     1     0     0
SMALL
No Charge or Current Charge


@<TRIPOS>ATOM
      1 CAO         -7.4350     2.1000     2.5620 cx         1 4YY      -0.118400
      2 CAP         -6.0890     2.6920     2.2190 cx         1 4YY      -0.118400
      3 CBJ         -6.8960     1.9840     1.1510 cx         1 4YY       0.033000
      4 FAI         -7.4760     2.7500     0.1790 f          1 4YY      -0.230000
      5 CAY         -6.4010     0.6260     0.6600 c          1 4YY       0.623100
      6 OAF         -6.9800    -0.4270     0.8980 o          1 4YY      -0.613100
      7 NAV         -5.2360     0.6810    -0.0740 ns         1 4YY      -0.482900
      8 CBG         -4.5360    -0.4820    -0.6730 c3         1 4YY       0.047700
      9 CBI         -4.8570    -0.6260    -2.2130 c3         1 4YY      -0.046000
     10 CAD         -4.3070     0.5920    -3.0100 c3         1 4YY      -0.090100
     11 CAB         -4.2320    -1.9200    -2.8010 c3         1 4YY      -0.090100
     12 CAC         -6.3940    -0.7070    -2.4390 c3         1 4YY      -0.090100
     13 CAZ         -3.0070    -0.3600    -0.3450 c          1 4YY       0.603100
     14 OAG         -2.4780     0.7400    -0.2090 o          1 4YY      -0.611100
     15 N           -2.2220    -1.5310    -0.2420 n          1 4YY      -0.387800
     16 CD2         -2.7680    -2.8280     0.2360 c5         1 4YY       0.070000
     17 CG          -1.5080    -3.5760     0.7740 c5         1 4YY       0.154300
     18 OD1         -1.2550    -3.2950     2.1550 oh         1 4YY      -0.652000
     19 CB          -0.3950    -2.9930    -0.1290 c5         1 4YY      -0.084400
     20 CA          -0.7380    -1.4740    -0.1390 c5         1 4YY       0.030700
     21 C           -0.0100    -0.8030    -1.3460 c          1 4YY       0.607100
     22 O           -0.4550    -0.5930    -2.4680 o          1 4YY      -0.600100
     23 NAU          1.2680    -0.4530    -0.9710 ns         1 4YY      -0.496900
     24 CAQ          2.2310     0.1970    -1.8550 c3         1 4YY       0.144300
     25 CBB          3.5630     0.4000    -1.1500 ca         1 4YY      -0.106300
     26 CAJ          4.5490    -0.6030    -1.1940 ca         1 4YY      -0.099000
     27 CAL          5.7780    -0.4170    -0.5380 ca         1 4YY      -0.097000
     28 CAK          3.8190     1.5900    -0.4440 ca         1 4YY      -0.099000
     29 CAM          5.0490     1.7740     0.2120 ca         1 4YY      -0.097000
     30 CBC          6.0330     0.7680     0.1780 ca         1 4YY      -0.004000
     31 CBD          7.3200     0.9490     0.8470 cc         1 4YY      -0.186000
     32 SAW          8.8670     0.6900     0.1030 ss         1 4YY      -0.028400
     33 CAN          9.5750     1.0990     1.6450 cc         1 4YY       0.414300
     34 NAT          8.7310     1.3680     2.6390 nd         1 4YY      -0.637000
     35 CBA          7.4220     1.2700     2.1860 cd         1 4YY       0.301300
     36 CAA          6.2980     1.4940     3.1630 c3         1 4YY      -0.122400
     37 H1          -7.4530     1.2040     3.1780 hc         1 4YY       0.092450
     38 H2          -8.2630     2.7840     2.7320 hc         1 4YY       0.092450
     39 H3          -6.0100     3.7750     2.1600 hc         1 4YY       0.092450
     40 H4          -5.2030     2.1940     2.6080 hc         1 4YY       0.092450
     41 H5          -4.8210     1.5990    -0.1890 hn         1 4YY       0.349500
     42 H6          -4.9010    -1.3850    -0.1700 h1         1 4YY       0.083700
     43 H7          -3.2160     0.6580    -2.9350 hc         1 4YY       0.041144
     44 H8          -4.5600     0.5070    -4.0740 hc         1 4YY       0.041144
     45 H9          -4.7320     1.5340    -2.6430 hc         1 4YY       0.041144
     46 H10         -4.6070    -2.8080    -2.2800 hc         1 4YY       0.041144
     47 H11         -4.4880    -2.0290    -3.8620 hc         1 4YY       0.041144
     48 H12         -3.1380    -1.9100    -2.7330 hc         1 4YY       0.041144
     49 H13         -6.8950     0.2250    -2.1500 hc         1 4YY       0.041144
     50 H14         -6.6270    -0.8870    -3.4960 hc         1 4YY       0.041144
     51 H15         -6.8320    -1.5260    -1.8550 hc         1 4YY       0.041144
     52 H16         -3.5270    -2.6970     1.0200 h1         1 4YY       0.061200
     53 H17         -3.2220    -3.3890    -0.5900 h1         1 4YY       0.061200
     54 H18         -1.6040    -4.6620     0.6290 h1         1 4YY       0.053700
     55 H19         -1.9430    -3.7660     2.6770 ho         1 4YY       0.449000
     56 H20          0.6110    -3.1980     0.2530 hc         1 4YY       0.072200
     57 H21         -0.4520    -3.4220    -1.1370 hc         1 4YY       0.072200
     58 H22         -0.4340    -0.9780     0.7930 h1         1 4YY       0.080700
     59 H23          1.5530    -0.6650    -0.0220 hn         1 4YY       0.317500
     60 H24          2.3730    -0.4240    -2.7500 h1         1 4YY       0.069200
     61 H25          1.8250     1.1660    -2.1760 h1         1 4YY       0.069200
     62 H26          4.3650    -1.5280    -1.7360 ha         1 4YY       0.117000
     63 H27          6.5320    -1.2000    -0.5790 ha         1 4YY       0.119500
     64 H28          3.0670     2.3750    -0.4050 ha         1 4YY       0.117000
     65 H29          5.2380     2.7060     0.7390 ha         1 4YY       0.119500
     66 H30         10.6540     1.1080     1.7400 h5         1 4YY       0.053100
     67 H31          5.9310     2.5250     3.1060 hc         1 4YY       0.051700
     68 H32          5.4570     0.8210     2.9610 hc         1 4YY       0.051700
     69 H33          6.6230     1.3120     4.1930 hc         1 4YY       0.051700
@<TRIPOS>BOND
     1     1     2 1   
     2     1     3 1   
     3     1    37 1   
     4     1    38 1   
     5     2     3 1   
     6     2    39 1   
     7     2    40 1   
     8     3     4 1   
     9     3     5 1   
    10     5     6 2   
    11     5     7 1   
    12     7     8 1   
    13     7    41 1   
    14     8     9 1   
    15     8    13 1   
    16     8    42 1   
    17     9    10 1   
    18     9    11 1   
    19     9    12 1   
    20    10    43 1   
    21    10    44 1   
    22    10    45 1   
    23    11    46 1   
    24    11    47 1   
    25    11    48 1   
    26    12    49 1   
    27    12    50 1   
    28    12    51 1   
    29    13    14 2   
    30    13    15 1   
    31    15    16 1   
    32    15    20 1   
    33    16    17 1   
    34    16    52 1   
    35    16    53 1   
    36    17    18 1   
    37    17    19 1   
    38    17    54 1   
    39    18    55 1   
    40    19    20 1   
    41    19    56 1   
    42    19    57 1   
    43    20    21 1   
    44    20    58 1   
    45    21    22 2   
    46    21    23 1   
    47    23    24 1   
    48    23    59 1   
    49    24    25 1   
    50    24    60 1   
    51    24    61 1   
    52    25    26 ar  
    53    25    28 ar  
    54    26    27 ar  
    55    26    62 1   
    56    27    30 ar  
    57    27    63 1   
    58    28    29 ar  
    59    28    64 1   
    60    29    30 ar  
    61    29    65 1   
    62    30    31 1   
    63    31    32 1   
    64    31    35 2   
    65    32    33 1   
    66    33    34 2   
    67    33    66 1   
    68    34    35 1   
    69    35    36 1   
    70    36    67 1   
    71    36    68 1   
    72    36    69 1   
@<TRIPOS>SUBSTRUCTURE
     1 4YY         1 TEMP              0 ****  ****    0 ROOT
