@<TRIPOS>MOLECULE
4YY
   69    72     1     0     0
SMALL
abcg2


@<TRIPOS>ATOM
      1 CAO         -8.6290     1.2970     1.0730 cx         1 4YY      -0.118400
      2 CAP         -7.8430     1.2580     2.3490 cx         1 4YY      -0.118400
      3 CBJ         -7.1410     1.3660     1.0410 cx         1 4YY       0.033000
      4 FAI         -6.5820     2.5830     0.7320 f          1 4YY      -0.230000
      5 CAY         -6.3650     0.1960     0.5220 c          1 4YY       0.623100
      6 OAF         -6.7460    -0.9400     0.7590 o          1 4YY      -0.613100
      7 NAV         -5.2760     0.5010    -0.1960 ns         1 4YY      -0.482900
      8 CBG         -4.3830    -0.4900    -0.7520 c3         1 4YY       0.047700
      9 CBI         -4.4980    -0.5870    -2.3010 c3         1 4YY      -0.046000
     10 CAD         -4.1180     0.7220    -2.9930 c3         1 4YY      -0.090100
     11 CAB         -3.5930    -1.7090    -2.8120 c3         1 4YY      -0.090100
     12 CAC         -5.9490    -0.9330    -2.6480 c3         1 4YY      -0.090100
     13 CAZ         -2.9750    -0.1320    -0.2860 c          1 4YY       0.603100
     14 OAG         -2.6090     1.0380    -0.2850 o          1 4YY      -0.611100
     15 N           -2.1550    -1.1120     0.1200 n          1 4YY      -0.387800
     16 CD2         -2.4470    -2.5230     0.3340 c5         1 4YY       0.070000
     17 CG          -1.3950    -2.9390     1.3570 c5         1 4YY       0.154300
     18 OD1         -1.7370    -2.5380     2.6630 oh         1 4YY      -0.652000
     19 CB          -0.1940    -2.1200     0.9180 c5         1 4YY      -0.084400
     20 CA          -0.8050    -0.7670     0.5270 c5         1 4YY       0.030700
     21 C           -0.0190    -0.1360    -0.6130 c          1 4YY       0.607100
     22 O           -0.1520    -0.5090    -1.7670 o          1 4YY      -0.600100
     23 NAU          0.8740     0.7830    -0.2140 ns         1 4YY      -0.496900
     24 CAQ          1.8580     1.3960    -1.0740 c3         1 4YY       0.144300
     25 CBB          3.2650     1.0240    -0.6800 ca         1 4YY      -0.106300
     26 CAJ          3.6330    -0.3110    -0.5190 ca         1 4YY      -0.099000
     27 CAL          4.9250    -0.6510    -0.1600 ca         1 4YY      -0.097000
     28 CAK          4.2290     2.0040    -0.4810 ca         1 4YY      -0.099000
     29 CAM          5.5290     1.6680    -0.1310 ca         1 4YY      -0.097000
     30 CBC          5.8940     0.3350     0.0450 ca         1 4YY      -0.004000
     31 CBD          7.2590    -0.0240     0.4340 cc         1 4YY      -0.186000
     32 SAW          8.0900    -1.3250    -0.3390 ss         1 4YY      -0.028400
     33 CAN          9.4490    -1.0280     0.6600 cc         1 4YY       0.414300
     34 NAT          9.3050    -0.0540     1.4970 nd         1 4YY      -0.637000
     35 CBA          8.0710     0.5290     1.3890 cd         1 4YY       0.301300
     36 CAA          7.7210     1.6550     2.3030 c3         1 4YY      -0.122400
     37 H1          -9.0980     0.3890     0.7190 hc         1 4YY       0.092450
     38 H2          -9.1620     2.2100     0.8390 hc         1 4YY       0.092450
     39 H3          -7.8490     2.1460     2.9690 hc         1 4YY       0.092450
     40 H4          -7.7640     0.3240     2.8890 hc         1 4YY       0.092450
     41 H5          -5.0080     1.4680    -0.2950 hn         1 4YY       0.349500
     42 H6          -4.6900    -1.4550    -0.3470 h1         1 4YY       0.083700
     43 H7          -3.0600     0.9570    -2.8810 hc         1 4YY       0.041144
     44 H8          -4.3230     0.6370    -4.0620 hc         1 4YY       0.041144
     45 H9          -4.6970     1.5700    -2.6230 hc         1 4YY       0.041144
     46 H10         -3.8750    -2.6750    -2.3880 hc         1 4YY       0.041144
     47 H11         -3.6860    -1.7920    -3.8970 hc         1 4YY       0.041144
     48 H12         -2.5410    -1.5320    -2.5860 hc         1 4YY       0.041144
     49 H13         -6.6330    -0.1210    -2.4010 hc         1 4YY       0.041144
     50 H14         -6.0370    -1.1210    -3.7190 hc         1 4YY       0.041144
     51 H15         -6.2830    -1.8300    -2.1230 hc         1 4YY       0.041144
     52 H16         -3.4610    -2.6850     0.7010 h1         1 4YY       0.061200
     53 H17         -2.3260    -3.1020    -0.5850 h1         1 4YY       0.061200
     54 H18         -1.2020    -4.0160     1.2990 h1         1 4YY       0.053700
     55 H19         -2.5280    -3.0140     2.9340 ho         1 4YY       0.449000
     56 H20          0.5670    -2.0250     1.6920 hc         1 4YY       0.072200
     57 H21          0.2650    -2.6000     0.0510 hc         1 4YY       0.072200
     58 H22         -0.8310    -0.0940     1.3900 h1         1 4YY       0.080700
     59 H23          0.8960     1.0400     0.7600 hn         1 4YY       0.317500
     60 H24          1.6550     1.0780    -2.0960 h1         1 4YY       0.069200
     61 H25          1.7420     2.4820    -1.0490 h1         1 4YY       0.069200
     62 H26          2.9040    -1.0980    -0.6670 ha         1 4YY       0.117000
     63 H27          5.1780    -1.6960    -0.0230 ha         1 4YY       0.119500
     64 H28          3.9660     3.0480    -0.6040 ha         1 4YY       0.117000
     65 H29          6.2650     2.4510    -0.0090 ha         1 4YY       0.119500
     66 H30         10.3450    -1.6280     0.5750 h5         1 4YY       0.053100
     67 H31          8.1220     2.6030     1.9400 hc         1 4YY       0.051700
     68 H32          6.6440     1.7710     2.4090 hc         1 4YY       0.051700
     69 H33          8.1440     1.4800     3.2920 hc         1 4YY       0.051700
@<TRIPOS>BOND
     1     1     2 1   
     2     1     3 1   
     3     1    37 1   
     4     1    38 1   
     5     2     3 1   
     6     2    39 1   
     7     2    40 1   
     8     3     4 1   
     9     3     5 1   
    10     5     6 2   
    11     5     7 1   
    12     7     8 1   
    13     7    41 1   
    14     8     9 1   
    15     8    13 1   
    16     8    42 1   
    17     9    10 1   
    18     9    11 1   
    19     9    12 1   
    20    10    43 1   
    21    10    44 1   
    22    10    45 1   
    23    11    46 1   
    24    11    47 1   
    25    11    48 1   
    26    12    49 1   
    27    12    50 1   
    28    12    51 1   
    29    13    14 2   
    30    13    15 1   
    31    15    16 1   
    32    15    20 1   
    33    16    17 1   
    34    16    52 1   
    35    16    53 1   
    36    17    18 1   
    37    17    19 1   
    38    17    54 1   
    39    18    55 1   
    40    19    20 1   
    41    19    56 1   
    42    19    57 1   
    43    20    21 1   
    44    20    58 1   
    45    21    22 2   
    46    21    23 1   
    47    23    24 1   
    48    23    59 1   
    49    24    25 1   
    50    24    60 1   
    51    24    61 1   
    52    25    26 ar  
    53    25    28 ar  
    54    26    27 ar  
    55    26    62 1   
    56    27    30 ar  
    57    27    63 1   
    58    28    29 ar  
    59    28    64 1   
    60    29    30 ar  
    61    29    65 1   
    62    30    31 1   
    63    31    32 1   
    64    31    35 2   
    65    32    33 1   
    66    33    34 2   
    67    33    66 1   
    68    34    35 1   
    69    35    36 1   
    70    36    67 1   
    71    36    68 1   
    72    36    69 1   
@<TRIPOS>SUBSTRUCTURE
     1 4YY         1 TEMP              0 ****  ****    0 ROOT
