@<TRIPOS>MOLECULE
4YZ
   21    21     1     0     0
SMALL
No Charge or Current Charge


@<TRIPOS>ATOM
      1 C10         -3.3230     0.2210     0.1120 ca         1 4YZ       0.092000
      2 C13         -1.7990    -1.6600    -0.1130 ca         1 4YZ      -0.113500
      3 O01          4.8320     1.1830    -1.0610 o          1 4YZ      -0.729000
      4 C02          4.5260     0.6050    -0.0300 c          1 4YZ       0.726000
      5 O03          4.8810     0.9660     1.0820 o          1 4YZ      -0.729000
      6 C04          3.5810    -0.5930    -0.1290 c3         1 4YZ      -0.214400
      7 C05          2.1300    -0.0870    -0.0450 c3         1 4YZ       0.106600
      8 S06          0.9490    -1.5060    -0.1610 ss         1 4YZ      -0.231000
      9 C07         -0.6950    -0.7890    -0.0510 ca         1 4YZ      -0.063000
     10 C08         -0.9160     0.5980     0.0940 ca         1 4YZ      -0.113500
     11 C09         -2.2290     1.0990     0.1760 ca         1 4YZ      -0.095000
     12 Cl11        -4.9620     0.8510     0.2140 cl         1 4YZ      -0.236000
     13 C12         -3.1100    -1.1590    -0.0320 ca         1 4YZ      -0.095000
     14 H1          -1.6390    -2.7310    -0.2250 ha         1 4YZ       0.128500
     15 H3           3.6760    -1.0830    -1.1060 hc         1 4YZ       0.034700
     16 H4           3.7170    -1.2680     0.7240 hc         1 4YZ       0.034700
     17 H5           1.9730     0.4330     0.9090 h1         1 4YZ       0.066200
     18 H6           1.9330     0.6130    -0.8670 h1         1 4YZ       0.066200
     19 H7          -0.0900     1.3010     0.1460 ha         1 4YZ       0.128500
     20 H8          -2.3970     2.1670     0.2870 ha         1 4YZ       0.117500
     21 H9          -3.9570    -1.8370    -0.0810 ha         1 4YZ       0.117500
@<TRIPOS>BOND
     1     1    11 ar  
     2     1    12 1   
     3     1    13 ar  
     4     2     9 ar  
     5     2    13 ar  
     6     2    14 1   
     7     3     4 1   
     8     4     5 1   
     9     4     6 1   
    10     6     7 1   
    11     6    15 1   
    12     6    16 1   
    13     7     8 1   
    14     7    17 1   
    15     7    18 1   
    16     8     9 1   
    17     9    10 ar  
    18    10    11 ar  
    19    10    19 1   
    20    11    20 1   
    21    13    21 1   
@<TRIPOS>SUBSTRUCTURE
     1 4YZ         1 TEMP              0 ****  ****    0 ROOT
