@<TRIPOS>MOLECULE
4YZ
   21    21     1     0     0
SMALL
abcg2


@<TRIPOS>ATOM
      1 C10         -3.2990     0.1900    -0.0210 ca         1 4YZ       0.092000
      2 C13         -1.7490    -1.6340    -0.0260 ca         1 4YZ      -0.113500
      3 O01          4.1810     1.7380    -0.0140 o          1 4YZ      -0.729000
      4 C02          4.5650     0.5540    -0.0010 c          1 4YZ       0.726000
      5 O03          5.7430     0.1470     0.0090 o          1 4YZ      -0.729000
      6 C04          3.4830    -0.5460     0.0030 c3         1 4YZ      -0.214400
      7 C05          2.0610    -0.0110    -0.0020 c3         1 4YZ       0.106600
      8 S06          0.9370    -1.4370     0.0090 ss         1 4YZ      -0.231000
      9 C07         -0.6750    -0.7390    -0.0030 ca         1 4YZ      -0.063000
     10 C08         -0.9420     0.6280     0.0100 ca         1 4YZ      -0.113500
     11 C09         -2.2500     1.0920     0.0010 ca         1 4YZ      -0.095000
     12 CL11        -4.9330     0.7690    -0.0320 cl         1 4YZ      -0.236000
     13 C12         -3.0550    -1.1760    -0.0350 ca         1 4YZ      -0.095000
     14 H1          -1.5690    -2.7020    -0.0380 ha         1 4YZ       0.128500
     15 H3           3.6430    -1.1930    -0.8660 hc         1 4YZ       0.034700
     16 H4           3.6400    -1.1840     0.8780 hc         1 4YZ       0.034700
     17 H5           1.8770     0.6080     0.8750 h1         1 4YZ       0.066200
     18 H6           1.8770     0.5930    -0.8910 h1         1 4YZ       0.066200
     19 H7          -0.1420     1.3530     0.0290 ha         1 4YZ       0.128500
     20 H8          -2.4390     2.1570     0.0120 ha         1 4YZ       0.117500
     21 H9          -3.8730    -1.8830    -0.0530 ha         1 4YZ       0.117500
@<TRIPOS>BOND
     1     1    11 ar  
     2     1    12 1   
     3     1    13 ar  
     4     2     9 ar  
     5     2    13 ar  
     6     2    14 1   
     7     3     4 1   
     8     4     5 1   
     9     4     6 1   
    10     6     7 1   
    11     6    15 1   
    12     6    16 1   
    13     7     8 1   
    14     7    17 1   
    15     7    18 1   
    16     8     9 1   
    17     9    10 ar  
    18    10    11 ar  
    19    10    19 1   
    20    11    20 1   
    21    13    21 1   
@<TRIPOS>SUBSTRUCTURE
     1 4YZ         1 TEMP              0 ****  ****    0 ROOT
