@<TRIPOS>MOLECULE
4Z0
   20    20     1     0     0
SMALL
bcc


@<TRIPOS>ATOM
      1 C13          4.9740     0.1460    -0.0190 cc         1 4Z0      -0.172000
      2 O01          1.2480     2.3490    -0.0890 o          1 4Z0      -0.515000
      3 C02          1.4050     1.1590    -0.0530 c          1 4Z0       0.688700
      4 O03          0.3900     0.2630    -0.0280 os         1 4Z0      -0.362200
      5 C04         -0.8970     0.6920    -0.0270 c2         1 4Z0      -0.005900
      6 C05         -1.8880    -0.1980    -0.0220 ce         1 4Z0      -0.230200
      7 C06         -3.2880     0.2590    -0.0180 c          1 4Z0       0.421300
      8 C07         -4.3860    -0.8440    -0.0290 c          1 4Z0       0.864600
      9 O08         -3.9730    -2.0160    -0.0170 o          1 4Z0      -0.798800
     10 O09         -5.5530    -0.4310    -0.0470 o          1 4Z0      -0.798800
     11 O10         -3.5910     1.4340    -0.0080 o          1 4Z0      -0.556100
     12 C11          2.6870     0.4760    -0.0310 cd         1 4Z0      -0.145700
     13 C12          3.9170     1.0800    -0.0530 cc         1 4Z0      -0.092000
     14 C14          4.5230    -1.1440     0.0280 cd         1 4Z0      -0.142100
     15 S15          2.8230    -1.2380     0.0310 ss         1 4Z0       0.051200
     16 H1           6.0200     0.4110    -0.0290 ha         1 4Z0       0.147000
     17 H2          -1.0520     1.7640    -0.0290 h4         1 4Z0       0.158000
     18 H4          -1.6870    -1.2600    -0.0230 ha         1 4Z0       0.164000
     19 H7           4.0530     2.1510    -0.0910 ha         1 4Z0       0.164000
     20 H8           5.1150    -2.0470     0.0610 h4         1 4Z0       0.162000
@<TRIPOS>BOND
     1     1    13 1   
     2     1    14 2   
     3     1    16 1   
     4     2     3 2   
     5     3     4 1   
     6     3    12 1   
     7     4     5 1   
     8     5     6 2   
     9     5    17 1   
    10     6     7 1   
    11     6    18 1   
    12     7     8 1   
    13     7    11 2   
    14     8     9 1   
    15     8    10 1   
    16    12    13 2   
    17    12    15 1   
    18    13    19 1   
    19    14    15 1   
    20    14    20 1   
@<TRIPOS>SUBSTRUCTURE
     1 4Z0         1 TEMP              0 ****  ****    0 ROOT
