@<TRIPOS>MOLECULE
4Z0
   20    20     1     0     0
SMALL
No Charge or Current Charge


@<TRIPOS>ATOM
      1 C13          5.0690     0.1670    -0.0150 cc         1 4Z0      -0.154000
      2 O01          1.3410     2.3340    -0.0680 o          1 4Z0      -0.466000
      3 C02          1.4500     1.1150    -0.0430 c          1 4Z0       0.639700
      4 O03          0.3750     0.2560    -0.0270 os         1 4Z0      -0.362200
      5 C04         -0.9220     0.7090    -0.0400 c2         1 4Z0      -0.055900
      6 C05         -1.9700    -0.1420    -0.0240 ce         1 4Z0      -0.280200
      7 C06         -3.4060     0.2990    -0.0370 c          1 4Z0       0.421300
      8 C07         -4.5430    -0.8660    -0.0150 c          1 4Z0       0.654000
      9 O08         -4.1850    -2.0420     0.0080 o          1 4Z0      -0.693500
     10 O09         -5.7270    -0.5320    -0.0220 o          1 4Z0      -0.693500
     11 O10         -3.6900     1.5010    -0.0630 o          1 4Z0      -0.556100
     12 C11          2.7550     0.4280    -0.0250 cd         1 4Z0      -0.290600
     13 C12          3.9730     1.0630    -0.0360 cc         1 4Z0      -0.074000
     14 C14          4.6990    -1.1540     0.0120 cd         1 4Z0      -0.269000
     15 S15          2.9310    -1.3330     0.0120 ss         1 4Z0       0.341000
     16 H1           6.1000     0.5110    -0.0200 ha         1 4Z0       0.129000
     17 H2          -1.0500     1.7950    -0.0630 h4         1 4Z0       0.208000
     18 H4          -1.7990    -1.2170    -0.0010 ha         1 4Z0       0.214000
     19 H7           4.1050     2.1430    -0.0580 ha         1 4Z0       0.146000
     20 H8           5.3330    -2.0310     0.0320 h4         1 4Z0       0.144000
@<TRIPOS>BOND
     1     1    13 1   
     2     1    14 2   
     3     1    16 1   
     4     2     3 2   
     5     3     4 1   
     6     3    12 1   
     7     4     5 1   
     8     5     6 2   
     9     5    17 1   
    10     6     7 1   
    11     6    18 1   
    12     7     8 1   
    13     7    11 2   
    14     8     9 1   
    15     8    10 1   
    16    12    13 2   
    17    12    15 1   
    18    13    19 1   
    19    14    15 1   
    20    14    20 1   
@<TRIPOS>SUBSTRUCTURE
     1 4Z0         1 TEMP              0 ****  ****    0 ROOT
