@<TRIPOS>MOLECULE
4Z1
   20    20     1     0     0
SMALL
abcg2


@<TRIPOS>ATOM
      1 C10         -1.7310    -1.6720     0.3240 ca         1 4Z1      -0.067000
      2 C13         -2.6650     0.5390     0.2040 ca         1 4Z1      -0.065000
      3 O01          4.2260    -1.4650    -0.7270 o          1 4Z1      -0.684000
      4 C02          3.9280    -1.0100     0.3920 c          1 4Z1       0.675000
      5 O03          4.5120    -1.1420     1.4710 o          1 4Z1      -0.684000
      6 C04          2.6320    -0.1500     0.4440 c          1 4Z1       0.429100
      7 O05          2.2260     0.4030     1.4470 o          1 4Z1      -0.618100
      8 N06          1.9870    -0.0800    -0.7440 ns         1 4Z1      -0.385300
      9 N07          0.8530     0.6630    -0.9140 nu         1 4Z1      -0.688200
     10 C08         -0.3380     0.1710    -0.4140 ca         1 4Z1       0.334000
     11 C09         -0.5160    -1.1830    -0.1210 ca         1 4Z1      -0.138000
     12 C11         -2.8020    -0.8080     0.4870 ca         1 4Z1       0.065000
     13 CL12        -4.3260    -1.4110     1.0510 cl         1 4Z1      -0.234000
     14 C14         -1.4430     1.0110    -0.2430 ca         1 4Z1       0.047000
     15 CL15        -1.2880     2.7030    -0.5980 cl         1 4Z1      -0.225000
     16 H1          -1.8350    -2.7260     0.5420 ha         1 4Z1       0.122000
     17 H2          -3.4940     1.2220     0.3290 ha         1 4Z1       0.126000
     18 H4           2.3930    -0.5140    -1.5580 hn         1 4Z1       0.366500
     19 H5           1.0000     1.6570    -0.8040 hn         1 4Z1       0.479000
     20 H6           0.3100    -1.8690    -0.2430 ha         1 4Z1       0.146000
@<TRIPOS>BOND
     1     1    11 ar  
     2     1    12 ar  
     3     1    16 1   
     4     2    12 ar  
     5     2    14 ar  
     6     2    17 1   
     7     3     4 1   
     8     4     5 1   
     9     4     6 1   
    10     6     7 2   
    11     6     8 1   
    12     8     9 1   
    13     8    18 1   
    14     9    10 1   
    15     9    19 1   
    16    10    11 ar  
    17    10    14 ar  
    18    11    20 1   
    19    12    13 1   
    20    14    15 1   
@<TRIPOS>SUBSTRUCTURE
     1 4Z1         1 TEMP              0 ****  ****    0 ROOT
