@<TRIPOS>MOLECULE
4Z1
   20    20     1     0     0
SMALL
No Charge or Current Charge


@<TRIPOS>ATOM
      1 C10         -1.9520    -1.6730     0.3960 ca         1 4Z1      -0.067000
      2 C13         -2.8910     0.5020    -0.1600 ca         1 4Z1      -0.065000
      3 O01          4.2320    -1.6150    -1.0670 o          1 4Z1      -0.684000
      4 C02          4.3400    -1.0520     0.0220 c          1 4Z1       0.675000
      5 O03          5.3310    -1.1670     0.7410 o          1 4Z1      -0.684000
      6 C04          3.1030    -0.1100     0.5260 c          1 4Z1       0.429100
      7 O05          3.1040     0.5220     1.5880 o          1 4Z1      -0.618100
      8 N06          2.0130    -0.0720    -0.3580 ns         1 4Z1      -0.385300
      9 N07          0.8380     0.7540    -0.1600 nu         1 4Z1      -0.688200
     10 C08         -0.4610     0.2140    -0.0510 ca         1 4Z1       0.334000
     11 C09         -0.6540    -1.1420     0.2860 ca         1 4Z1      -0.138000
     12 C11         -3.0680    -0.8510     0.1720 ca         1 4Z1       0.065000
     13 Cl12        -4.6900    -1.5150     0.3110 cl         1 4Z1      -0.234000
     14 C14         -1.5940     1.0350    -0.2700 ca         1 4Z1       0.047000
     15 Cl15        -1.4140     2.7440    -0.6930 cl         1 4Z1      -0.225000
     16 H1          -2.0930    -2.7190     0.6570 ha         1 4Z1       0.122000
     17 H2          -3.7560     1.1360    -0.3310 ha         1 4Z1       0.126000
     18 H4           2.1220    -0.5820    -1.2400 hn         1 4Z1       0.366500
     19 H5           0.9160     1.7170    -0.5140 hn         1 4Z1       0.479000
     20 H6           0.2010    -1.7860     0.4690 ha         1 4Z1       0.146000
@<TRIPOS>BOND
     1     1    11 ar  
     2     1    12 ar  
     3     1    16 1   
     4     2    12 ar  
     5     2    14 ar  
     6     2    17 1   
     7     3     4 1   
     8     4     5 1   
     9     4     6 1   
    10     6     7 2   
    11     6     8 1   
    12     8     9 1   
    13     8    18 1   
    14     9    10 1   
    15     9    19 1   
    16    10    11 ar  
    17    10    14 ar  
    18    11    20 1   
    19    12    13 1   
    20    14    15 1   
@<TRIPOS>SUBSTRUCTURE
     1 4Z1         1 TEMP              0 ****  ****    0 ROOT
