@<TRIPOS>MOLECULE
4Z2
   56    59     1     0     0
SMALL
No Charge or Current Charge


@<TRIPOS>ATOM
      1 CAL         27.8880   -52.7620   -10.3060 cy         1 4Z2      -0.106900
      2 CAM         28.8990   -53.6530   -11.1020 cy         1 4Z2      -0.091400
      3 CAN         28.1930   -53.0920   -12.3820 cy         1 4Z2      -0.106900
      4 CAK         26.9060   -53.0210   -11.4960 cy         1 4Z2       0.216500
      5 NAJ         25.9450   -51.9820   -11.8110 nu         1 4Z2      -0.916100
      6 CAI         24.7660   -51.6660   -11.1670 ca         1 4Z2       0.613900
      7 CAH         23.9880   -50.5760   -11.5790 ca         1 4Z2      -0.185000
      8 NAO         24.4380   -52.4720   -10.1500 nb         1 4Z2      -0.733000
      9 CAP         23.2920   -52.2030    -9.4920 ca         1 4Z2       0.380900
     10 CAQ         22.4450   -51.1320    -9.8270 ca         1 4Z2      -0.215000
     11 CAG         22.7850   -50.2790   -10.9030 ca         1 4Z2      -0.069600
     12 CAE         21.9300   -49.1000   -11.3340 c          1 4Z2       0.605700
     13 OAF         22.2460   -48.3720   -12.2650 o          1 4Z2      -0.603100
     14 NAD         20.7700   -48.8880   -10.6190 ns         1 4Z2      -0.502900
     15 CAC         19.8210   -47.7870   -10.8530 c3         1 4Z2       0.095000
     16 CAB         20.1190   -46.5290    -9.9980 c3         1 4Z2       0.150300
     17 OAA         19.1030   -45.5410   -10.1810 oh         1 4Z2      -0.670000
     18 CAR         21.4590   -45.8260   -10.3370 c3         1 4Z2       0.128800
     19 NAS         21.5060   -44.4090    -9.8630 n3         1 4Z2      -0.746600
     20 CAT         22.6410   -43.6550   -10.4540 c6         1 4Z2       0.173800
     21 CAU         22.5230   -42.1420   -10.1590 c6         1 4Z2      -0.030100
     22 CAV         22.1790   -41.8370    -8.6990 ca         1 4Z2      -0.064300
     23 CBB         22.3250   -40.5270    -8.2020 ca         1 4Z2      -0.109000
     24 CBA         21.9930   -40.2350    -6.8680 ca         1 4Z2      -0.107000
     25 CAZ         21.5110   -41.2510    -6.0270 ca         1 4Z2      -0.110000
     26 CAY         21.3610   -42.5590    -6.5190 ca         1 4Z2      -0.107000
     27 CAW         21.6890   -42.8580    -7.8560 ca         1 4Z2      -0.079300
     28 CAX         21.5370   -44.2940    -8.3740 c6         1 4Z2       0.210100
     29 H1          28.1960   -51.7170   -10.1840 hc         1 4Z2       0.054450
     30 H2          27.5680   -53.1500    -9.3330 hc         1 4Z2       0.054450
     31 H3          28.7780   -54.7330   -10.9480 hc         1 4Z2       0.053700
     32 H4          29.9580   -53.3990   -10.9860 hc         1 4Z2       0.053700
     33 H5          28.1450   -53.7720   -13.2390 hc         1 4Z2       0.054450
     34 H6          28.5750   -52.1230   -12.7230 hc         1 4Z2       0.054450
     35 H7          26.3840   -53.9860   -11.4280 h1         1 4Z2       0.087700
     36 H8          26.1590   -51.3680   -12.5930 hn         1 4Z2       0.483000
     37 H9          24.3180   -49.9680   -12.4150 ha         1 4Z2       0.140000
     38 H10         23.0420   -52.8680    -8.6660 h4         1 4Z2       0.018100
     39 H11         21.5410   -50.9890    -9.2420 ha         1 4Z2       0.122000
     40 H12         20.5740   -49.5400    -9.8700 hn         1 4Z2       0.317500
     41 H13         19.8260   -47.5180   -11.9180 h1         1 4Z2       0.073200
     42 H14         18.8130   -48.1490   -10.6090 h1         1 4Z2       0.073200
     43 H15         20.1450   -46.8270    -8.9420 h1         1 4Z2       0.029700
     44 H16         19.6370   -44.7060   -10.1170 ho         1 4Z2       0.476000
     45 H17         22.2910   -46.4080    -9.9150 h1         1 4Z2       0.054200
     46 H18         21.5780   -45.8460   -11.4290 h1         1 4Z2       0.054200
     47 H20         22.6770   -43.7960   -11.5450 h1         1 4Z2       0.039200
     48 H21         23.5940   -44.0280   -10.0490 h1         1 4Z2       0.039200
     49 H22         23.4590   -41.6430   -10.4410 hc         1 4Z2       0.056700
     50 H23         21.7410   -41.7160   -10.8010 hc         1 4Z2       0.056700
     51 H24         22.6930   -39.7350    -8.8510 ha         1 4Z2       0.111000
     52 H25         22.1080   -39.2220    -6.4880 ha         1 4Z2       0.113000
     53 H26         21.2550   -41.0260    -4.9940 ha         1 4Z2       0.113000
     54 H27         20.9900   -43.3410    -5.8610 ha         1 4Z2       0.110000
     55 H28         20.6200   -44.7180    -7.9400 h1         1 4Z2       0.042200
     56 H29         22.3750   -44.8830    -7.9720 h1         1 4Z2       0.042200
@<TRIPOS>BOND
     1     1     2 1   
     2     1     4 1   
     3     1    29 1   
     4     1    30 1   
     5     2     3 1   
     6     2    31 1   
     7     2    32 1   
     8     3     4 1   
     9     3    33 1   
    10     3    34 1   
    11     4     5 1   
    12     4    35 1   
    13     5     6 1   
    14     5    36 1   
    15     6     7 ar  
    16     6     8 ar  
    17     7    11 ar  
    18     7    37 1   
    19     8     9 ar  
    20     9    10 ar  
    21     9    38 1   
    22    10    11 ar  
    23    10    39 1   
    24    11    12 1   
    25    12    13 2   
    26    12    14 1   
    27    14    15 1   
    28    14    40 1   
    29    15    16 1   
    30    15    41 1   
    31    15    42 1   
    32    16    17 1   
    33    16    18 1   
    34    16    43 1   
    35    17    44 1   
    36    18    19 1   
    37    18    45 1   
    38    18    46 1   
    39    19    20 1   
    40    19    28 1   
    41    20    21 1   
    42    20    47 1   
    43    20    48 1   
    44    21    22 1   
    45    21    49 1   
    46    21    50 1   
    47    22    23 ar  
    48    22    27 ar  
    49    23    24 ar  
    50    23    51 1   
    51    24    25 ar  
    52    24    52 1   
    53    25    26 ar  
    54    25    53 1   
    55    26    27 ar  
    56    26    54 1   
    57    27    28 1   
    58    28    55 1   
    59    28    56 1   
@<TRIPOS>SUBSTRUCTURE
     1 4Z2         1 TEMP              0 ****  ****    0 ROOT
