@<TRIPOS>MOLECULE
4Z2
   56    59     1     0     0
SMALL
abcg2


@<TRIPOS>ATOM
      1 CAL         27.6750   -52.4180    -9.9180 cy         1 4Z2      -0.106900
      2 CAM         28.8970   -52.9960   -10.6750 cy         1 4Z2      -0.091400
      3 CAN         28.1710   -52.6840   -12.0080 cy         1 4Z2      -0.106900
      4 CAK         26.8490   -52.6220   -11.2190 cy         1 4Z2       0.216500
      5 NAJ         25.8930   -51.6310   -11.6430 nu         1 4Z2      -0.916100
      6 CAI         24.6240   -51.5400   -11.1530 ca         1 4Z2       0.613900
      7 CAH         23.8140   -50.4380   -11.5040 ca         1 4Z2      -0.185000
      8 NAO         24.1720   -52.5260   -10.3630 nb         1 4Z2      -0.733000
      9 CAP         22.9110   -52.4470    -9.9220 ca         1 4Z2       0.380900
     10 CAQ         22.0470   -51.4070   -10.2080 ca         1 4Z2      -0.215000
     11 CAG         22.5240   -50.3690   -11.0240 ca         1 4Z2      -0.069600
     12 CAE         21.6830   -49.1900   -11.4280 c          1 4Z2       0.605700
     13 OAF         21.9040   -48.5800   -12.4750 o          1 4Z2      -0.603100
     14 NAD         20.6920   -48.8610   -10.5780 ns         1 4Z2      -0.502900
     15 CAC         19.7580   -47.7750   -10.8110 c3         1 4Z2       0.095000
     16 CAB         20.1130   -46.5100   -10.0340 c3         1 4Z2       0.150300
     17 OAA         19.0420   -45.5860   -10.2170 oh         1 4Z2      -0.670000
     18 CAR         21.4170   -45.8670   -10.5070 c3         1 4Z2       0.128800
     19 NAS         21.5510   -44.5270    -9.9450 n3         1 4Z2      -0.746600
     20 CAT         22.4550   -43.6700   -10.7090 c6         1 4Z2       0.173800
     21 CAU         22.2690   -42.2200   -10.2890 c6         1 4Z2      -0.030100
     22 CAV         22.2870   -42.0570    -8.7900 ca         1 4Z2      -0.064300
     23 CBB         22.4650   -40.7980    -8.2110 ca         1 4Z2      -0.109000
     24 CBA         22.4670   -40.6360    -6.8320 ca         1 4Z2      -0.107000
     25 CAZ         22.2870   -41.7450    -6.0070 ca         1 4Z2      -0.110000
     26 CAY         22.1090   -42.9990    -6.5740 ca         1 4Z2      -0.107000
     27 CAW         22.1070   -43.1670    -7.9600 ca         1 4Z2      -0.079300
     28 CAX         21.9420   -44.5510    -8.5380 c6         1 4Z2       0.210100
     29 H1          27.8000   -51.3550    -9.7070 hc         1 4Z2       0.054450
     30 H2          27.3320   -52.9290    -9.0190 hc         1 4Z2       0.054450
     31 H3          29.0010   -54.0700   -10.5150 hc         1 4Z2       0.053700
     32 H4          29.8610   -52.5180   -10.5090 hc         1 4Z2       0.053700
     33 H5          28.2390   -53.4060   -12.8210 hc         1 4Z2       0.054450
     34 H6          28.4440   -51.6940   -12.3830 hc         1 4Z2       0.054450
     35 H7          26.3580   -53.5940   -11.2000 h1         1 4Z2       0.087700
     36 H8          26.2700   -50.7960   -12.0660 hn         1 4Z2       0.483000
     37 H9          24.2010   -49.6590   -12.1460 ha         1 4Z2       0.140000
     38 H10         22.5760   -53.2710    -9.3010 h4         1 4Z2       0.018100
     39 H11         21.0340   -51.4280    -9.8310 ha         1 4Z2       0.122000
     40 H12         20.6190   -49.3610    -9.7060 hn         1 4Z2       0.317500
     41 H13         19.7400   -47.5600   -11.8780 h1         1 4Z2       0.073200
     42 H14         18.7630   -48.1020   -10.5070 h1         1 4Z2       0.073200
     43 H15         20.1920   -46.7720    -8.9710 h1         1 4Z2       0.029700
     44 H16         19.4590   -44.7100   -10.1160 ho         1 4Z2       0.476000
     45 H17         22.2720   -46.5110   -10.2570 h1         1 4Z2       0.054200
     46 H18         21.3770   -45.7690   -11.5930 h1         1 4Z2       0.054200
     47 H20         22.2300   -43.7850   -11.7690 h1         1 4Z2       0.039200
     48 H21         23.5040   -43.9770   -10.5580 h1         1 4Z2       0.039200
     49 H22         23.0480   -41.6000   -10.7410 hc         1 4Z2       0.056700
     50 H23         21.3120   -41.8570   -10.6780 hc         1 4Z2       0.056700
     51 H24         22.6060   -39.9380    -8.8560 ha         1 4Z2       0.111000
     52 H25         22.6080   -39.6520    -6.4020 ha         1 4Z2       0.113000
     53 H26         22.2840   -41.6300    -4.9310 ha         1 4Z2       0.113000
     54 H27         21.9660   -43.8640    -5.9360 ha         1 4Z2       0.110000
     55 H28         21.1890   -45.0910    -7.9640 h1         1 4Z2       0.042200
     56 H29         22.8890   -45.1070    -8.4170 h1         1 4Z2       0.042200
@<TRIPOS>BOND
     1     1     2 1   
     2     1     4 1   
     3     1    29 1   
     4     1    30 1   
     5     2     3 1   
     6     2    31 1   
     7     2    32 1   
     8     3     4 1   
     9     3    33 1   
    10     3    34 1   
    11     4     5 1   
    12     4    35 1   
    13     5     6 1   
    14     5    36 1   
    15     6     7 ar  
    16     6     8 ar  
    17     7    11 ar  
    18     7    37 1   
    19     8     9 ar  
    20     9    10 ar  
    21     9    38 1   
    22    10    11 ar  
    23    10    39 1   
    24    11    12 1   
    25    12    13 2   
    26    12    14 1   
    27    14    15 1   
    28    14    40 1   
    29    15    16 1   
    30    15    41 1   
    31    15    42 1   
    32    16    17 1   
    33    16    18 1   
    34    16    43 1   
    35    17    44 1   
    36    18    19 1   
    37    18    45 1   
    38    18    46 1   
    39    19    20 1   
    40    19    28 1   
    41    20    21 1   
    42    20    47 1   
    43    20    48 1   
    44    21    22 1   
    45    21    49 1   
    46    21    50 1   
    47    22    23 ar  
    48    22    27 ar  
    49    23    24 ar  
    50    23    51 1   
    51    24    25 ar  
    52    24    52 1   
    53    25    26 ar  
    54    25    53 1   
    55    26    27 ar  
    56    26    54 1   
    57    27    28 1   
    58    28    55 1   
    59    28    56 1   
@<TRIPOS>SUBSTRUCTURE
     1 4Z2         1 TEMP              0 ****  ****    0 ROOT
