@<TRIPOS>MOLECULE
4Z3
   20    20     1     0     0
SMALL
No Charge or Current Charge


@<TRIPOS>ATOM
      1 C10          2.8510     2.2690    -0.0570 ca         1 4Z3      -0.115000
      2 O01         -5.1880    -1.4640    -0.0160 oh         1 4Z3      -0.505000
      3 N02         -4.4140    -0.2940    -0.1250 n2         1 4Z3      -0.253700
      4 C03         -3.2210    -0.3850     0.3950 ce         1 4Z3       0.294200
      5 C04         -2.2310     0.7360     0.2150 c          1 4Z3       0.529800
      6 O05         -2.5560     1.8970    -0.0320 o          1 4Z3      -0.543100
      7 N06         -0.9090     0.3060     0.2690 ns         1 4Z3      -0.165000
      8 C07          0.3310     0.9990     0.1560 ca         1 4Z3      -0.015000
      9 C08          0.4310     2.4090     0.1840 ca         1 4Z3      -0.101000
     10 C09          1.6840     3.0380     0.0750 ca         1 4Z3      -0.084000
     11 C11          2.7660     0.8680    -0.0760 ca         1 4Z3      -0.073000
     12 C12          1.5150     0.2370     0.0320 ca         1 4Z3      -0.041900
     13 Br13         1.4520    -1.6820     0.0010 br         1 4Z3      -0.095100
     14 H1           3.8200     2.7580    -0.1400 ha         1 4Z3       0.121000
     15 H2          -6.0490    -1.2410    -0.4470 ho         1 4Z3       0.482000
     16 H4          -2.8250    -1.3500     0.7180 h4         1 4Z3       0.013800
     17 H6          -0.8010    -0.6890     0.4220 hn         1 4Z3       0.167000
     18 H7          -0.4470     3.0370     0.2990 ha         1 4Z3       0.132000
     19 H8           1.7500     4.1240     0.0980 ha         1 4Z3       0.122000
     20 H9           3.6710     0.2720    -0.1750 ha         1 4Z3       0.131000
@<TRIPOS>BOND
     1     1    10 ar  
     2     1    11 ar  
     3     1    14 1   
     4     2     3 1   
     5     2    15 1   
     6     3     4 2   
     7     4     5 1   
     8     4    16 1   
     9     5     6 2   
    10     5     7 1   
    11     7     8 1   
    12     7    17 1   
    13     8     9 ar  
    14     8    12 ar  
    15     9    10 ar  
    16     9    18 1   
    17    10    19 1   
    18    11    12 ar  
    19    11    20 1   
    20    12    13 1   
@<TRIPOS>SUBSTRUCTURE
     1 4Z3         1 TEMP              0 ****  ****    0 ROOT
