@<TRIPOS>MOLECULE
4Z3
   20    20     1     0     0
SMALL
bcc


@<TRIPOS>ATOM
      1 C10          2.7170     2.3210    -0.0940 ca         1 4Z3      -0.133000
      2 O01         -5.1880    -1.1220     0.1150 oh         1 4Z3      -0.367500
      3 N02         -4.2470    -0.2590    -0.3030 n2         1 4Z3      -0.352200
      4 C03         -3.1240    -0.4280     0.2610 ce         1 4Z3       0.294200
      5 C04         -2.0210     0.4820    -0.1470 c          1 4Z3       0.596800
      6 O05         -2.1500     1.3690    -0.9670 o          1 4Z3      -0.543100
      7 N06         -0.8590     0.2060     0.4960 ns         1 4Z3      -0.491100
      8 C07          0.3350     0.9130     0.2850 ca         1 4Z3       0.077600
      9 C08          0.3770     2.2950     0.4530 ca         1 4Z3      -0.119000
     10 C09          1.5560     2.9950     0.2580 ca         1 4Z3      -0.102000
     11 C11          2.6970     0.9440    -0.2560 ca         1 4Z3      -0.091000
     12 C12          1.5080     0.2510    -0.0780 ca         1 4Z3      -0.041900
     13 BR13         1.4920    -1.6150    -0.3450 br         1 4Z3      -0.095100
     14 H1           3.6420     2.8620    -0.2420 ha         1 4Z3       0.139000
     15 H2          -5.9770    -0.8900    -0.3880 ho         1 4Z3       0.443000
     16 H4          -2.9490    -1.1980     1.0100 h4         1 4Z3       0.013800
     17 H6          -0.8320    -0.5860     1.1220 hn         1 4Z3       0.333500
     18 H7          -0.5180     2.8180     0.7580 ha         1 4Z3       0.150000
     19 H8           1.5690     4.0680     0.3910 ha         1 4Z3       0.140000
     20 H9           3.6020     0.4190    -0.5310 ha         1 4Z3       0.149000
@<TRIPOS>BOND
     1     1    10 ar  
     2     1    11 ar  
     3     1    14 1   
     4     2     3 1   
     5     2    15 1   
     6     3     4 2   
     7     4     5 1   
     8     4    16 1   
     9     5     6 2   
    10     5     7 1   
    11     7     8 1   
    12     7    17 1   
    13     8     9 ar  
    14     8    12 ar  
    15     9    10 ar  
    16     9    18 1   
    17    10    19 1   
    18    11    12 ar  
    19    11    20 1   
    20    12    13 1   
@<TRIPOS>SUBSTRUCTURE
     1 4Z3         1 TEMP              0 ****  ****    0 ROOT
