@<TRIPOS>MOLECULE
4Z4
   14    14     1     0     0
SMALL
No Charge or Current Charge


@<TRIPOS>ATOM
      1 C10          0.7290     1.2060    -0.0470 ca         1 4Z4      -0.107000
      2 O01         -3.1510    -0.6140     0.8660 o          1 4Z4      -0.696500
      3 C02         -2.4050    -0.9980    -0.0240 c          1 4Z4       0.720600
      4 O03         -2.7340    -1.8020    -0.8850 o          1 4Z4      -0.696500
      5 C04         -0.9680    -0.5530     0.0060 ca         1 4Z4      -0.089600
      6 C05          0.0590    -1.5190     0.1140 ca         1 4Z4      -0.120000
      7 C06          1.4050    -1.1230     0.1480 ca         1 4Z4       0.146000
      8 F07          2.3710    -2.0630     0.2560 f          1 4Z4      -0.186000
      9 C08          1.7440     0.2420     0.0700 ca         1 4Z4       0.049000
     10 Cl09         3.4290     0.7600     0.1090 cl         1 4Z4      -0.223000
     11 C11         -0.6220     0.8140    -0.0800 ca         1 4Z4       0.133000
     12 Cl12        -1.8480     2.0680    -0.2700 cl         1 4Z4      -0.201000
     13 H1           0.9880     2.2580    -0.1170 ha         1 4Z4       0.120000
     14 H3          -0.1910    -2.5750     0.1750 ha         1 4Z4       0.149000
@<TRIPOS>BOND
     1     1     9 ar  
     2     1    11 ar  
     3     1    13 1   
     4     2     3 1   
     5     3     4 1   
     6     3     5 1   
     7     5     6 ar  
     8     5    11 ar  
     9     6     7 ar  
    10     6    14 1   
    11     7     8 1   
    12     7     9 ar  
    13     9    10 1   
    14    11    12 1   
@<TRIPOS>SUBSTRUCTURE
     1 4Z4         1 TEMP              0 ****  ****    0 ROOT
