@<TRIPOS>MOLECULE
4Z4
   14    14     1     0     0
SMALL
abcg2


@<TRIPOS>ATOM
      1 C10          0.7310     1.2030    -0.0190 ca         1 4Z4      -0.107000
      2 O01         -3.2350    -0.3790     0.6440 o          1 4Z4      -0.696500
      3 C02         -2.4140    -1.0460     0.0000 c          1 4Z4       0.720600
      4 O03         -2.6000    -2.1060    -0.6220 o          1 4Z4      -0.696500
      5 C04         -0.9710    -0.5330    -0.0030 ca         1 4Z4      -0.089600
      6 C05          0.0520    -1.4770     0.0560 ca         1 4Z4      -0.120000
      7 C06          1.3720    -1.0920     0.1130 ca         1 4Z4       0.146000
      8 F07          2.3320    -2.0160     0.1960 f          1 4Z4      -0.186000
      9 C08          1.7250     0.2460     0.0740 ca         1 4Z4       0.049000
     10 CL09         3.3850     0.6970     0.1270 cl         1 4Z4      -0.223000
     11 C11         -0.6010     0.8090    -0.0420 ca         1 4Z4       0.133000
     12 CL12        -1.7740     2.0760    -0.1930 cl         1 4Z4      -0.201000
     13 H1           0.9960     2.2500    -0.0720 ha         1 4Z4       0.120000
     14 H3          -0.1920    -2.5310     0.0650 ha         1 4Z4       0.149000
@<TRIPOS>BOND
     1     1     9 ar  
     2     1    11 ar  
     3     1    13 1   
     4     2     3 1   
     5     3     4 1   
     6     3     5 1   
     7     5     6 ar  
     8     5    11 ar  
     9     6     7 ar  
    10     6    14 1   
    11     7     8 1   
    12     7     9 ar  
    13     9    10 1   
    14    11    12 1   
@<TRIPOS>SUBSTRUCTURE
     1 4Z4         1 TEMP              0 ****  ****    0 ROOT
