@<TRIPOS>MOLECULE
4Z5
   60    62     1     0     0
SMALL
No Charge or Current Charge


@<TRIPOS>ATOM
      1 O29          2.3640    -0.9950     0.3900 o          1 4Z5      -0.623100
      2 C23          3.0460    -0.0490     0.0240 c          1 4Z5       0.660100
      3 N24          4.4150    -0.1240    -0.0580 ns         1 4Z5      -0.524900
      4 C25          5.1920    -1.3170     0.2760 c3         1 4Z5       0.118000
      5 C26          6.7070    -1.0760     0.0820 c3         1 4Z5      -0.088400
      6 C27          7.6440    -2.2830     0.4080 c3         1 4Z5      -0.041000
      7 C31          7.3210    -3.4960    -0.5060 c3         1 4Z5      -0.086100
      8 C30          9.1120    -1.8480     0.1540 c3         1 4Z5      -0.086100
      9 C28          7.5020    -2.7060     1.8950 c3         1 4Z5      -0.086100
     10 N22          2.5610     1.1950    -0.3470 ns         1 4Z5      -0.166000
     11 C16          1.2400     1.7250    -0.4280 ca         1 4Z5      -0.044000
     12 C15          0.0790     0.9600    -0.1850 ca         1 4Z5      -0.085000
     13 C17          1.0880     3.0810    -0.7770 ca         1 4Z5       0.117000
     14 F20          2.1790     3.8440    -1.0210 f          1 4Z5      -0.189000
     15 C18         -0.1840     3.6640    -0.8720 ca         1 4Z5      -0.129000
     16 C19         -1.3400     2.9020    -0.6220 ca         1 4Z5      -0.059300
     17 C21         -2.7020     3.5820    -0.7170 c3         1 4Z5      -0.045800
     18 C12         -1.2140     1.5300    -0.2760 cp         1 4Z5      -0.028000
     19 C8          -2.4110     0.6770    -0.0140 cp         1 4Z5      -0.131000
     20 C7          -3.3150     0.3740    -1.0520 ca         1 4Z5       0.006000
     21 C6          -4.4280    -0.4340    -0.7760 ca         1 4Z5      -0.266000
     22 C1          -5.3520    -0.7580    -1.7860 ca         1 4Z5       0.189900
     23 C9          -2.6900     0.1350     1.2670 ca         1 4Z5       0.166300
     24 C11         -1.7980     0.4060     2.4720 c3         1 4Z5      -0.156400
     25 N10         -3.7650    -0.6440     1.5180 nb         1 4Z5      -0.151000
     26 C5          -4.6370    -0.9400     0.5310 ca         1 4Z5       0.142000
     27 N4          -5.7200    -1.7150     0.7570 nb         1 4Z5      -0.249000
     28 C3          -6.5460    -1.9700    -0.2710 ca         1 4Z5       0.399900
     29 N2          -6.4210    -1.5310    -1.5350 nb         1 4Z5      -0.232000
     30 N13         -7.6380    -2.7720     0.0310 nu         1 4Z5      -0.920100
     31 C14         -8.7050    -3.2160    -0.8870 c3         1 4Z5       0.234100
     32 H1           4.9080     0.7030    -0.3690 hn         1 4Z5       0.308500
     33 H2           4.9840    -1.5860     1.3200 h1         1 4Z5       0.054200
     34 H3           4.8560    -2.1410    -0.3680 h1         1 4Z5       0.054200
     35 H4           6.8750    -0.7690    -0.9580 hc         1 4Z5       0.041700
     36 H5           7.0000    -0.2220     0.7050 hc         1 4Z5       0.041700
     37 H6           7.3710    -3.2130    -1.5650 hc         1 4Z5       0.035367
     38 H7           8.0360    -4.3100    -0.3410 hc         1 4Z5       0.035367
     39 H8           6.3190    -3.8940    -0.3070 hc         1 4Z5       0.035367
     40 H9           9.2580    -1.5500    -0.8910 hc         1 4Z5       0.035367
     41 H10          9.3850    -0.9970     0.7900 hc         1 4Z5       0.035367
     42 H11          9.8090    -2.6670     0.3710 hc         1 4Z5       0.035367
     43 H12          8.2250    -3.4920     2.1480 hc         1 4Z5       0.035367
     44 H13          7.6830    -1.8550     2.5640 hc         1 4Z5       0.035367
     45 H14          6.5010    -3.1000     2.1080 hc         1 4Z5       0.035367
     46 H15          3.2770     1.8580    -0.6100 hn         1 4Z5       0.154000
     47 H16          0.1500    -0.0920     0.0700 ha         1 4Z5       0.149000
     48 H17         -0.2660     4.7140    -1.1400 ha         1 4Z5       0.132000
     49 H18         -3.2080     3.3200    -1.6540 hc         1 4Z5       0.046367
     50 H19         -3.3550     3.2860     0.1130 hc         1 4Z5       0.046367
     51 H20         -2.6140     4.6740    -0.6830 hc         1 4Z5       0.046367
     52 H21         -3.1430     0.7610    -2.0560 ha         1 4Z5       0.125000
     53 H22         -5.2360    -0.3950    -2.8060 h4         1 4Z5       0.023100
     54 H23         -1.4940     1.4590     2.5090 hc         1 4Z5       0.058700
     55 H24         -2.3080     0.1820     3.4170 hc         1 4Z5       0.058700
     56 H25         -0.8900    -0.2060     2.4310 hc         1 4Z5       0.058700
     57 H26         -7.6930    -3.0820     1.0040 hn         1 4Z5       0.512000
     58 H27         -9.2370    -2.3520    -1.3070 h1         1 4Z5       0.041700
     59 H28         -8.2830    -3.8020    -1.7150 h1         1 4Z5       0.041700
     60 H29         -9.4330    -3.8440    -0.3550 h1         1 4Z5       0.041700
@<TRIPOS>BOND
     1     1     2 2   
     2     2     3 1   
     3     2    10 1   
     4     3     4 1   
     5     3    32 1   
     6     4     5 1   
     7     4    33 1   
     8     4    34 1   
     9     5     6 1   
    10     5    35 1   
    11     5    36 1   
    12     6     7 1   
    13     6     8 1   
    14     6     9 1   
    15     7    37 1   
    16     7    38 1   
    17     7    39 1   
    18     8    40 1   
    19     8    41 1   
    20     8    42 1   
    21     9    43 1   
    22     9    44 1   
    23     9    45 1   
    24    10    11 1   
    25    10    46 1   
    26    11    12 ar  
    27    11    13 ar  
    28    12    18 ar  
    29    12    47 1   
    30    13    14 1   
    31    13    15 ar  
    32    15    16 ar  
    33    15    48 1   
    34    16    17 1   
    35    16    18 ar  
    36    17    49 1   
    37    17    50 1   
    38    17    51 1   
    39    18    19 1   
    40    19    20 ar  
    41    19    23 ar  
    42    20    21 ar  
    43    20    52 1   
    44    21    22 ar  
    45    21    26 ar  
    46    22    29 ar  
    47    22    53 1   
    48    23    24 1   
    49    23    25 ar  
    50    24    54 1   
    51    24    55 1   
    52    24    56 1   
    53    25    26 ar  
    54    26    27 ar  
    55    27    28 ar  
    56    28    29 ar  
    57    28    30 1   
    58    30    31 1   
    59    30    57 1   
    60    31    58 1   
    61    31    59 1   
    62    31    60 1   
@<TRIPOS>SUBSTRUCTURE
     1 4Z5         1 TEMP              0 ****  ****    0 ROOT
