@<TRIPOS>MOLECULE
4Z5
   60    62     1     0     0
SMALL
bcc


@<TRIPOS>ATOM
      1 O29          2.2960    -0.7790    -0.5130 o          1 4Z5      -0.623100
      2 C23          3.0370     0.1360    -0.1860 c          1 4Z5       0.794100
      3 N24          4.3510    -0.0340     0.0700 ns         1 4Z5      -0.591900
      4 C25          5.0120    -1.3100    -0.1200 c3         1 4Z5       0.118000
      5 C26          6.4180    -1.2420     0.4600 c3         1 4Z5      -0.088400
      6 C27          7.2710    -2.5070     0.2830 c3         1 4Z5      -0.041000
      7 C31          7.5230    -2.7960    -1.1990 c3         1 4Z5      -0.086100
      8 C30          8.6140    -2.2600     0.9720 c3         1 4Z5      -0.086100
      9 C28          6.5950    -3.7160     0.9330 c3         1 4Z5      -0.086100
     10 N22          2.6040     1.4340    -0.0230 ns         1 4Z5      -0.492100
     11 C16          1.3120     1.8900    -0.2700 ca         1 4Z5       0.048600
     12 C15          0.1570     1.1550    -0.0090 ca         1 4Z5      -0.103000
     13 C17          1.1310     3.1790    -0.7620 ca         1 4Z5       0.081900
     14 F20          2.2250     3.9220    -1.0100 f          1 4Z5      -0.153900
     15 C18         -0.1120     3.7250    -0.9910 ca         1 4Z5      -0.147000
     16 C19         -1.2600     2.9800    -0.7470 ca         1 4Z5      -0.059300
     17 C21         -2.6170     3.5640    -1.0110 c3         1 4Z5      -0.045800
     18 C12         -1.1070     1.6810    -0.2520 cp         1 4Z5      -0.028000
     19 C8          -2.3000     0.8450     0.0330 cp         1 4Z5      -0.196300
     20 C7          -2.8530     0.0480    -0.9320 ca         1 4Z5      -0.012000
     21 C6          -3.9860    -0.7200    -0.6230 ca         1 4Z5      -0.396600
     22 C1          -4.6530    -1.5740    -1.5220 ca         1 4Z5       0.518200
     23 C9          -2.9120     0.8540     1.3210 ca         1 4Z5       0.494600
     24 C11         -2.3330     1.7110     2.4030 c3         1 4Z5      -0.156400
     25 N10         -3.9700     0.1390     1.6250 nb         1 4Z5      -0.677000
     26 C5          -4.5250    -0.6480     0.6800 ca         1 4Z5       0.733300
     27 N4          -5.6070    -1.3550     1.0230 nb         1 4Z5      -0.775000
     28 C3          -6.1510    -2.1190     0.0890 ca         1 4Z5       0.925900
     29 N2          -5.7070    -2.2610    -1.1910 nb         1 4Z5      -0.758000
     30 N13         -7.2410    -2.8250     0.4140 nu         1 4Z5      -0.864900
     31 C14         -7.9540    -3.6950    -0.4880 c3         1 4Z5       0.234100
     32 H1           4.9350     0.7710     0.2330 hn         1 4Z5       0.308500
     33 H2           4.4340    -2.0870     0.3810 h1         1 4Z5       0.054200
     34 H3           5.0470    -1.5710    -1.1820 h1         1 4Z5       0.054200
     35 H4           6.9500    -0.4000     0.0030 hc         1 4Z5       0.041700
     36 H5           6.3420    -1.0160     1.5290 hc         1 4Z5       0.041700
     37 H6           7.9660    -1.9340    -1.7010 hc         1 4Z5       0.035367
     38 H7           8.2120    -3.6360    -1.3140 hc         1 4Z5       0.035367
     39 H8           6.6060    -3.0560    -1.7310 hc         1 4Z5       0.035367
     40 H9           9.1370    -1.4080     0.5330 hc         1 4Z5       0.035367
     41 H10          8.4810    -2.0540     2.0370 hc         1 4Z5       0.035367
     42 H11          9.2650    -3.1320     0.8810 hc         1 4Z5       0.035367
     43 H12          7.2560    -4.5850     0.9070 hc         1 4Z5       0.035367
     44 H13          6.3500    -3.5200     1.9790 hc         1 4Z5       0.035367
     45 H14          5.6730    -3.9960     0.4210 hc         1 4Z5       0.035367
     46 H15          3.3070     2.1440     0.1140 hn         1 4Z5       0.320500
     47 H16          0.2380     0.1580     0.3960 ha         1 4Z5       0.167000
     48 H17         -0.1810     4.7370    -1.3720 ha         1 4Z5       0.150000
     49 H18         -3.1210     3.0450    -1.8290 hc         1 4Z5       0.046367
     50 H19         -3.2690     3.4870    -0.1400 hc         1 4Z5       0.046367
     51 H20         -2.5450     4.6160    -1.2820 hc         1 4Z5       0.046367
     52 H21         -2.4290     0.0080    -1.9290 ha         1 4Z5       0.143000
     53 H22         -4.2890    -1.6770    -2.5400 h4         1 4Z5       0.023100
     54 H23         -2.2300     2.7470     2.0770 hc         1 4Z5       0.058700
     55 H24         -2.9610     1.6830     3.2900 hc         1 4Z5       0.058700
     56 H25         -1.3320     1.3680     2.6720 hc         1 4Z5       0.058700
     57 H26         -7.5700    -2.7350     1.3600 hn         1 4Z5       0.456800
     58 H27         -8.3020    -3.1640    -1.3740 h1         1 4Z5       0.041700
     59 H28         -7.3460    -4.5400    -0.8140 h1         1 4Z5       0.041700
     60 H29         -8.8210    -4.0830     0.0390 h1         1 4Z5       0.041700
@<TRIPOS>BOND
     1     1     2 2   
     2     2     3 1   
     3     2    10 1   
     4     3     4 1   
     5     3    32 1   
     6     4     5 1   
     7     4    33 1   
     8     4    34 1   
     9     5     6 1   
    10     5    35 1   
    11     5    36 1   
    12     6     7 1   
    13     6     8 1   
    14     6     9 1   
    15     7    37 1   
    16     7    38 1   
    17     7    39 1   
    18     8    40 1   
    19     8    41 1   
    20     8    42 1   
    21     9    43 1   
    22     9    44 1   
    23     9    45 1   
    24    10    11 1   
    25    10    46 1   
    26    11    12 ar  
    27    11    13 ar  
    28    12    18 ar  
    29    12    47 1   
    30    13    14 1   
    31    13    15 ar  
    32    15    16 ar  
    33    15    48 1   
    34    16    17 1   
    35    16    18 ar  
    36    17    49 1   
    37    17    50 1   
    38    17    51 1   
    39    18    19 1   
    40    19    20 ar  
    41    19    23 ar  
    42    20    21 ar  
    43    20    52 1   
    44    21    22 ar  
    45    21    26 ar  
    46    22    29 ar  
    47    22    53 1   
    48    23    24 1   
    49    23    25 ar  
    50    24    54 1   
    51    24    55 1   
    52    24    56 1   
    53    25    26 ar  
    54    26    27 ar  
    55    27    28 ar  
    56    28    29 ar  
    57    28    30 1   
    58    30    31 1   
    59    30    57 1   
    60    31    58 1   
    61    31    59 1   
    62    31    60 1   
@<TRIPOS>SUBSTRUCTURE
     1 4Z5         1 TEMP              0 ****  ****    0 ROOT
