@<TRIPOS>MOLECULE
4Z8
   54    56     1     0     0
SMALL
No Charge or Current Charge


@<TRIPOS>ATOM
      1 C4           3.4390     1.6490     0.5320 ca         1 4Z8      -0.008600
      2 C5           2.0520     1.6690     0.8060 ca         1 4Z8       0.426900
      3 C11          6.3860    -0.2890    -0.4550 c3         1 4Z8       0.094300
      4 C7           1.8760    -0.5910     0.3400 ca         1 4Z8       0.609900
      5 C8           3.2510    -0.6960     0.0600 ca         1 4Z8      -0.210000
      6 C9           4.0230     0.4700     0.1640 ca         1 4Z8      -0.026200
      7 C12          6.6100    -1.3920     0.6020 c3         1 4Z8      -0.107600
      8 C13          6.1320    -0.8550    -1.8690 c3         1 4Z8      -0.107600
      9 N3           4.3630     2.6900     0.5810 nc         1 4Z8      -0.556100
     10 C1           6.8080     2.8200     0.1400 c3         1 4Z8      -0.113400
     11 C2           5.5070     2.0720     0.2280 cd         1 4Z8       0.418800
     12 N6           1.2800     0.5560     0.7130 nb         1 4Z8      -0.679000
     13 N10          5.3630     0.6980    -0.0430 na         1 4Z8      -0.183600
     14 N14          1.0790    -1.7180     0.2730 nu         1 4Z8      -0.921800
     15 C15         -0.2850    -1.9730     0.2830 ca         1 4Z8       0.428900
     16 C16         -0.7150    -3.2990     0.3820 ca         1 4Z8      -0.350000
     17 C17         -2.0970    -3.5380     0.3660 ca         1 4Z8       0.169900
     18 N18         -2.9790    -2.5290     0.2520 nb         1 4Z8      -0.268000
     19 C19         -2.4570    -1.2930     0.1540 ca         1 4Z8       0.411900
     20 N20         -1.1590    -0.9610     0.1590 nb         1 4Z8      -0.291000
     21 N21         -3.3350    -0.2300     0.0310 nu         1 4Z8      -0.929100
     22 C22         -4.8090    -0.2800    -0.0040 c3         1 4Z8       0.254800
     23 C23         -5.4500     1.1340    -0.1520 c3         1 4Z8      -0.143000
     24 C24         -5.0630     2.0450     1.0540 c3         1 4Z8      -0.087100
     25 C25         -4.9940     1.8100    -1.4830 c3         1 4Z8      -0.087100
     26 C26         -6.9960     0.9570    -0.1780 c          1 4Z8       0.608100
     27 O27         -7.5630    -0.1200    -0.0940 o          1 4Z8      -0.601100
     28 N28         -7.7370     2.0810    -0.3020 nt         1 4Z8      -0.608000
     29 H1           1.5530     2.5900     1.1050 h4         1 4Z8       0.035100
     30 H2           7.3360     0.2570    -0.5200 h1         1 4Z8       0.061700
     31 H3           3.6820    -1.6480    -0.2270 ha         1 4Z8       0.125000
     32 H4           5.7280    -2.0310     0.7140 hc         1 4Z8       0.048700
     33 H5           7.4560    -2.0290     0.3170 hc         1 4Z8       0.048700
     34 H6           6.8360    -0.9470     1.5780 hc         1 4Z8       0.048700
     35 H7           6.0290    -0.0400    -2.5950 hc         1 4Z8       0.048700
     36 H8           6.9710    -1.4850    -2.1860 hc         1 4Z8       0.048700
     37 H9           5.2210    -1.4620    -1.9060 hc         1 4Z8       0.048700
     38 H10          7.5470     2.3960     0.8290 hc         1 4Z8       0.059033
     39 H11          7.2190     2.7670    -0.8750 hc         1 4Z8       0.059033
     40 H12          6.6800     3.8780     0.3950 hc         1 4Z8       0.059033
     41 H13          1.6300    -2.5640     0.1890 hn         1 4Z8       0.501000
     42 H14         -0.0130    -4.1220     0.4720 ha         1 4Z8       0.127000
     43 H15         -2.5030    -4.5460     0.4430 h4         1 4Z8       0.016100
     44 H16         -2.8950     0.6860    -0.0340 hn         1 4Z8       0.502000
     45 H17         -5.1350    -0.9120    -0.8440 h1         1 4Z8       0.070200
     46 H18         -5.1820    -0.7490     0.9190 h1         1 4Z8       0.070200
     47 H19         -5.3920     1.5960     2.0000 hc         1 4Z8       0.042033
     48 H20         -3.9780     2.1970     1.1130 hc         1 4Z8       0.042033
     49 H21         -5.5240     3.0360     0.9740 hc         1 4Z8       0.042033
     50 H22         -5.4540     2.7970    -1.6110 hc         1 4Z8       0.042033
     51 H23         -3.9070     1.9540    -1.5100 hc         1 4Z8       0.042033
     52 H24         -5.2740     1.1930    -2.3470 hc         1 4Z8       0.042033
     53 H25         -7.2840     2.9800    -0.3730 hn         1 4Z8       0.313000
     54 H26         -8.7430     2.0090    -0.3230 hn         1 4Z8       0.313000
@<TRIPOS>BOND
     1     1     2 ar  
     2     1     6 ar  
     3     1     9 1   
     4     2    12 ar  
     5     2    29 1   
     6     3     7 1   
     7     3     8 1   
     8     3    13 1   
     9     3    30 1   
    10     4     5 ar  
    11     4    12 ar  
    12     4    14 1   
    13     5     6 ar  
    14     5    31 1   
    15     6    13 1   
    16     7    32 1   
    17     7    33 1   
    18     7    34 1   
    19     8    35 1   
    20     8    36 1   
    21     8    37 1   
    22     9    11 2   
    23    10    11 1   
    24    10    38 1   
    25    10    39 1   
    26    10    40 1   
    27    11    13 1   
    28    14    15 1   
    29    14    41 1   
    30    15    16 ar  
    31    15    20 ar  
    32    16    17 ar  
    33    16    42 1   
    34    17    18 ar  
    35    17    43 1   
    36    18    19 ar  
    37    19    20 ar  
    38    19    21 1   
    39    21    22 1   
    40    21    44 1   
    41    22    23 1   
    42    22    45 1   
    43    22    46 1   
    44    23    24 1   
    45    23    25 1   
    46    23    26 1   
    47    24    47 1   
    48    24    48 1   
    49    24    49 1   
    50    25    50 1   
    51    25    51 1   
    52    25    52 1   
    53    26    27 2   
    54    26    28 1   
    55    28    53 1   
    56    28    54 1   
@<TRIPOS>SUBSTRUCTURE
     1 4Z8         1 TEMP              0 ****  ****    0 ROOT
