@<TRIPOS>MOLECULE
4Z8
   54    56     1     0     0
SMALL
abcg2


@<TRIPOS>ATOM
      1 C4           3.2690     1.3710     1.2610 ca         1 4Z8      -0.008600
      2 C5           2.0590     1.2100     1.9220 ca         1 4Z8       0.426900
      3 C11          5.8510     0.0160    -0.9040 c3         1 4Z8       0.094300
      4 C7           1.8350    -0.9140     1.0910 ca         1 4Z8       0.609900
      5 C8           3.0250    -0.8710     0.3750 ca         1 4Z8      -0.210000
      6 C9           3.7540     0.3050     0.4900 ca         1 4Z8      -0.026200
      7 C12          6.3980    -1.2310    -0.2210 c3         1 4Z8      -0.107600
      8 C13          5.2000    -0.2850    -2.2480 c3         1 4Z8      -0.107600
      9 N3           4.1420     2.4280     1.2140 nc         1 4Z8      -0.556100
     10 C1           6.3040     2.8470     0.1030 c3         1 4Z8      -0.113400
     11 C2           5.1160     2.0270     0.4460 cd         1 4Z8       0.418800
     12 N6           1.3730     0.0830     1.8470 nb         1 4Z8      -0.679000
     13 N10          4.9390     0.7470    -0.0250 na         1 4Z8      -0.183600
     14 N14          1.0950    -2.1030     1.0690 nu         1 4Z8      -0.921800
     15 C15         -0.2450    -2.2300     0.8650 ca         1 4Z8       0.428900
     16 C16         -0.8200    -3.5180     0.8870 ca         1 4Z8      -0.350000
     17 C17         -2.1710    -3.5710     0.6540 ca         1 4Z8       0.169900
     18 N18         -2.9320    -2.5010     0.4290 nb         1 4Z8      -0.268000
     19 C19         -2.2850    -1.3350     0.4300 ca         1 4Z8       0.411900
     20 N20         -0.9730    -1.1540     0.6300 nb         1 4Z8      -0.291000
     21 N21         -2.9980    -0.2160     0.1920 nu         1 4Z8      -0.929100
     22 C22         -4.4340    -0.2030     0.0530 c3         1 4Z8       0.254800
     23 C23         -4.9390     1.1730    -0.4030 c3         1 4Z8      -0.143000
     24 C24         -4.6270     2.2380     0.6590 c3         1 4Z8      -0.087100
     25 C25         -4.3090     1.5530    -1.7500 c3         1 4Z8      -0.087100
     26 C26         -6.4630     1.0690    -0.5720 c          1 4Z8       0.608100
     27 O27         -7.0750     0.0270    -0.3820 o          1 4Z8      -0.601100
     28 N28         -7.0840     2.1950    -0.9540 nt         1 4Z8      -0.608000
     29 H1           1.6470     2.0040     2.5370 h4         1 4Z8       0.035100
     30 H2           6.6890     0.6890    -1.0850 h1         1 4Z8       0.061700
     31 H3           3.3350    -1.7110    -0.2310 ha         1 4Z8       0.125000
     32 H4           5.6270    -1.9840    -0.0540 hc         1 4Z8       0.048700
     33 H5           7.1620    -1.6800    -0.8540 hc         1 4Z8       0.048700
     34 H6           6.8540    -0.9870     0.7380 hc         1 4Z8       0.048700
     35 H7           4.8260     0.6240    -2.7180 hc         1 4Z8       0.048700
     36 H8           5.9400    -0.7300    -2.9130 hc         1 4Z8       0.048700
     37 H9           4.3740    -0.9900    -2.1580 hc         1 4Z8       0.048700
     38 H10          7.2280     2.3820     0.4510 hc         1 4Z8       0.059033
     39 H11          6.3940     2.9930    -0.9740 hc         1 4Z8       0.059033
     40 H12          6.2130     3.8220     0.5740 hc         1 4Z8       0.059033
     41 H13          1.6290    -2.9550     1.0110 hn         1 4Z8       0.501000
     42 H14         -0.2360    -4.4070     1.0780 ha         1 4Z8       0.127000
     43 H15         -2.6810    -4.5290     0.6530 h4         1 4Z8       0.016100
     44 H16         -2.5010     0.6490     0.3280 hn         1 4Z8       0.502000
     45 H17         -4.7220    -0.9580    -0.6800 h1         1 4Z8       0.070200
     46 H18         -4.9180    -0.4770     0.9960 h1         1 4Z8       0.070200
     47 H19         -5.0860     1.9870     1.6170 hc         1 4Z8       0.042033
     48 H20         -3.5540     2.3380     0.8240 hc         1 4Z8       0.042033
     49 H21         -4.9800     3.2270     0.3660 hc         1 4Z8       0.042033
     50 H22         -4.6510     2.5260    -2.1040 hc         1 4Z8       0.042033
     51 H23         -3.2240     1.6090    -1.6680 hc         1 4Z8       0.042033
     52 H24         -4.5460     0.8140    -2.5170 hc         1 4Z8       0.042033
     53 H25         -6.6050     3.0690    -1.0810 hn         1 4Z8       0.313000
     54 H26         -8.0860     2.2040    -1.0590 hn         1 4Z8       0.313000
@<TRIPOS>BOND
     1     1     2 ar  
     2     1     6 ar  
     3     1     9 1   
     4     2    12 ar  
     5     2    29 1   
     6     3     7 1   
     7     3     8 1   
     8     3    13 1   
     9     3    30 1   
    10     4     5 ar  
    11     4    12 ar  
    12     4    14 1   
    13     5     6 ar  
    14     5    31 1   
    15     6    13 1   
    16     7    32 1   
    17     7    33 1   
    18     7    34 1   
    19     8    35 1   
    20     8    36 1   
    21     8    37 1   
    22     9    11 2   
    23    10    11 1   
    24    10    38 1   
    25    10    39 1   
    26    10    40 1   
    27    11    13 1   
    28    14    15 1   
    29    14    41 1   
    30    15    16 ar  
    31    15    20 ar  
    32    16    17 ar  
    33    16    42 1   
    34    17    18 ar  
    35    17    43 1   
    36    18    19 ar  
    37    19    20 ar  
    38    19    21 1   
    39    21    22 1   
    40    21    44 1   
    41    22    23 1   
    42    22    45 1   
    43    22    46 1   
    44    23    24 1   
    45    23    25 1   
    46    23    26 1   
    47    24    47 1   
    48    24    48 1   
    49    24    49 1   
    50    25    50 1   
    51    25    51 1   
    52    25    52 1   
    53    26    27 2   
    54    26    28 1   
    55    28    53 1   
    56    28    54 1   
@<TRIPOS>SUBSTRUCTURE
     1 4Z8         1 TEMP              0 ****  ****    0 ROOT
