@<TRIPOS>MOLECULE
4Z9
   25    26     1     0     0
SMALL
No Charge or Current Charge


@<TRIPOS>ATOM
      1 C8           2.5240     0.7080    -0.0660 ca         1 4Z9      -0.052200
      2 C5           2.6510    -2.0440     0.3470 ca         1 4Z9      -0.167000
      3 C9           1.4030    -0.0600    -0.2180 ca         1 4Z9      -0.091800
      4 C10         -3.2830    -0.6510    -0.0240 c          1 4Z9       0.689000
      5 O11         -3.3140    -1.8330    -0.3380 o          1 4Z9      -0.722500
      6 C13         -1.9050    -0.0140     0.3840 c3         1 4Z9       0.024300
      7 O14         -2.0790     1.1300     1.2650 oh         1 4Z9      -0.707000
      8 C3           0.3220     0.8100    -0.5940 cc         1 4Z9      -0.081400
      9 C2           0.8690     2.0890    -0.6540 cd         1 4Z9      -0.174100
     10 N1           2.2450     2.0380    -0.3220 na         1 4Z9      -0.238700
     11 C7           3.7540     0.1440     0.2980 ca         1 4Z9      -0.146000
     12 C6           3.8120    -1.2500     0.5070 ca         1 4Z9      -0.104000
     13 C4           1.4260    -1.4490    -0.0220 ca         1 4Z9      -0.041000
     14 H1           2.7040    -3.1180     0.5070 ha         1 4Z9       0.098000
     15 H3          -1.3370    -0.7950     0.9050 h1         1 4Z9       0.032700
     16 H4          -3.0400     1.3510     1.2000 ho         1 4Z9       0.469000
     17 H7           0.3770     3.0250    -0.9040 h4         1 4Z9       0.208000
     18 H8           2.8960     2.8160    -0.2810 hn         1 4Z9       0.333000
     19 H9           4.6410     0.7620     0.4170 ha         1 4Z9       0.096000
     20 H10          4.7530    -1.7170     0.7900 ha         1 4Z9       0.091000
     21 H11          0.5290    -2.0500    -0.1500 ha         1 4Z9       0.127000
     22 C15         -1.1040     0.4070    -0.8760 c3         1 4Z9      -0.016200
     23 H5          -1.0960    -0.4310    -1.5840 hc         1 4Z9       0.048200
     24 H6          -1.6310     1.2250    -1.3830 hc         1 4Z9       0.048200
     25 O12         -4.2870     0.0390     0.1070 o          1 4Z9      -0.722500
@<TRIPOS>BOND
     1     1     3 ar  
     2     1    10 1   
     3     1    11 ar  
     4     2    12 ar  
     5     2    13 ar  
     6     2    14 1   
     7     3     8 1   
     8     3    13 ar  
     9     4     5 1   
    10     4     6 1   
    11     4    25 1   
    12     6     7 1   
    13     6    15 1   
    14     6    22 1   
    15     7    16 1   
    16     8     9 2   
    17     8    22 1   
    18     9    10 1   
    19     9    17 1   
    20    10    18 1   
    21    11    12 ar  
    22    11    19 1   
    23    12    20 1   
    24    13    21 1   
    25    22    23 1   
    26    22    24 1   
@<TRIPOS>SUBSTRUCTURE
     1 4Z9         1 TEMP              0 ****  ****    0 ROOT
