@<TRIPOS>MOLECULE
4Z9
   25    26     1     0     0
SMALL
bcc


@<TRIPOS>ATOM
      1 C8           2.5090     0.6930    -0.0280 ca         1 4Z9      -0.052200
      2 C5           2.7740    -2.0300     0.3020 ca         1 4Z9      -0.185000
      3 C9           1.3930    -0.1470    -0.2440 ca         1 4Z9      -0.091800
      4 C10         -3.3530    -0.4290     0.0160 c          1 4Z9       0.899600
      5 O11         -3.4840    -1.4850    -0.6220 o          1 4Z9      -0.827800
      6 C13         -1.9190     0.0260     0.3670 c3         1 4Z9       0.001100
      7 O14         -1.9750     1.1900     1.1510 oh         1 4Z9      -0.644800
      8 C3           0.2960     0.6920    -0.6260 cc         1 4Z9      -0.081400
      9 C2           0.7800     1.9680    -0.6170 cd         1 4Z9      -0.124100
     10 N1           2.1030     1.9730    -0.2640 na         1 4Z9      -0.188400
     11 C7           3.7540     0.1920     0.3520 ca         1 4Z9      -0.164000
     12 C6           3.8690    -1.1760     0.5130 ca         1 4Z9      -0.122000
     13 C4           1.5420    -1.5290    -0.0720 ca         1 4Z9      -0.059000
     14 H1           2.9010    -3.0970     0.4360 ha         1 4Z9       0.116000
     15 H3          -1.4360    -0.7820     0.9370 h1         1 4Z9       0.032700
     16 H4          -2.9300     1.3870     1.1550 ho         1 4Z9       0.430000
     17 H7           0.2730     2.8930    -0.8460 h4         1 4Z9       0.158000
     18 H8           2.6770     2.7950    -0.1810 hn         1 4Z9       0.282700
     19 H9           4.5990     0.8490     0.5160 ha         1 4Z9       0.114000
     20 H10          4.8210    -1.5970     0.8080 ha         1 4Z9       0.109000
     21 H11          0.7050    -2.1980    -0.2300 ha         1 4Z9       0.145000
     22 C15         -1.1020     0.2590    -0.9100 c3         1 4Z9      -0.016200
     23 H5          -1.1020    -0.6650    -1.4920 hc         1 4Z9       0.048200
     24 H6          -1.6070     1.0130    -1.5210 hc         1 4Z9       0.048200
     25 O12         -4.2600     0.3390     0.4120 o          1 4Z9      -0.827800
@<TRIPOS>BOND
     1     1     3 ar  
     2     1    10 1   
     3     1    11 ar  
     4     2    12 ar  
     5     2    13 ar  
     6     2    14 1   
     7     3     8 1   
     8     3    13 ar  
     9     4     5 1   
    10     4     6 1   
    11     4    25 1   
    12     6     7 1   
    13     6    15 1   
    14     6    22 1   
    15     7    16 1   
    16     8     9 2   
    17     8    22 1   
    18     9    10 1   
    19     9    17 1   
    20    10    18 1   
    21    11    12 ar  
    22    11    19 1   
    23    12    20 1   
    24    13    21 1   
    25    22    23 1   
    26    22    24 1   
@<TRIPOS>SUBSTRUCTURE
     1 4Z9         1 TEMP              0 ****  ****    0 ROOT
