@<TRIPOS>MOLECULE
4ZA
   15    16     1     0     0
SMALL
No Charge or Current Charge


@<TRIPOS>ATOM
      1 C10          0.9250    -0.4270     0.0130 cc         1 4ZA      -0.232000
      2 O01         -3.2740    -1.1010     0.0200 o          1 4ZA      -0.718000
      3 C02         -2.7540     0.0060     0.0090 c          1 4ZA       0.731600
      4 O03         -3.4010     1.0440    -0.0010 o          1 4ZA      -0.718000
      5 C04         -1.2700     0.0750     0.0080 cc         1 4ZA      -0.181600
      6 C05         -0.5250     1.2550    -0.0030 cd         1 4ZA      -0.153000
      7 C06          0.8310     0.8880     0.0000 cd         1 4ZA      -0.155000
      8 C07          2.0810     1.5510    -0.0060 cd         1 4ZA      -0.052000
      9 C08          3.1230     0.6290     0.0020 cc         1 4ZA      -0.264000
     10 S09          2.5400    -1.0670     0.0190 ss         1 4ZA       0.069000
     11 N11         -0.3380    -0.9930     0.0190 na         1 4ZA      -0.064000
     12 H2          -0.9200     2.2670    -0.0130 ha         1 4ZA       0.135000
     13 H3           2.2090     2.6290    -0.0170 ha         1 4ZA       0.114000
     14 H4           4.1880     0.8190     0.0000 h4         1 4ZA       0.122000
     15 H5          -0.5650    -1.9830     0.0280 hn         1 4ZA       0.365000
@<TRIPOS>BOND
     1     1     7 2   
     2     1    10 1   
     3     1    11 1   
     4     2     3 1   
     5     3     4 1   
     6     3     5 1   
     7     5     6 2   
     8     5    11 1   
     9     6     7 1   
    10     6    12 1   
    11     7     8 1   
    12     8     9 2   
    13     8    13 1   
    14     9    10 1   
    15     9    14 1   
    16    11    15 1   
@<TRIPOS>SUBSTRUCTURE
     1 4ZA         1 TEMP              0 ****  ****    0 ROOT
