@<TRIPOS>MOLECULE
4ZA
   15    16     1     0     0
SMALL
bcc


@<TRIPOS>ATOM
      1 C10          0.8740    -0.4060     0.0130 cc         1 4ZA      -0.036400
      2 O01         -3.0950    -1.2830     0.0250 o          1 4ZA      -0.823300
      3 C02         -2.7410    -0.0860     0.0100 c          1 4ZA       0.942200
      4 O03         -3.4700     0.9230    -0.0020 o          1 4ZA      -0.823300
      5 C04         -1.2630     0.1600     0.0070 cc         1 4ZA      -0.130900
      6 C05         -0.5470     1.3350    -0.0040 cd         1 4ZA      -0.171000
      7 C06          0.8300     0.9830     0.0000 cd         1 4ZA      -0.155000
      8 C07          2.1470     1.5410    -0.0060 cd         1 4ZA      -0.070000
      9 C08          3.1080     0.5830     0.0030 cc         1 4ZA      -0.137100
     10 S09          2.4700    -1.0430     0.0180 ss         1 4ZA      -0.220800
     11 N11         -0.3800    -0.8960     0.0170 na         1 4ZA      -0.115100
     12 H2          -0.9710     2.3270    -0.0130 ha         1 4ZA       0.153000
     13 H3           2.3740     2.5980    -0.0160 ha         1 4ZA       0.132000
     14 H4           4.1790     0.7180     0.0010 h4         1 4ZA       0.140000
     15 H5          -0.6650    -1.8620     0.0270 hn         1 4ZA       0.314700
@<TRIPOS>BOND
     1     1     7 2   
     2     1    10 1   
     3     1    11 1   
     4     2     3 1   
     5     3     4 1   
     6     3     5 1   
     7     5     6 2   
     8     5    11 1   
     9     6     7 1   
    10     6    12 1   
    11     7     8 1   
    12     8     9 2   
    13     8    13 1   
    14     9    10 1   
    15     9    14 1   
    16    11    15 1   
@<TRIPOS>SUBSTRUCTURE
     1 4ZA         1 TEMP              0 ****  ****    0 ROOT
