@<TRIPOS>MOLECULE
4ZB
   55    58     1     0     0
SMALL
No Charge or Current Charge


@<TRIPOS>ATOM
      1 C4           3.4350     1.5940     0.3700 ca         1 4ZB      -0.004600
      2 C5           2.0400     1.6390     0.6000 ca         1 4ZB       0.424900
      3 C11          6.3870    -0.4080    -0.4610 c3         1 4ZB       0.094300
      4 C7           1.8500    -0.6340     0.2020 ca         1 4ZB       0.604900
      5 C8           3.2320    -0.7630    -0.0310 ca         1 4ZB      -0.204000
      6 C9           4.0150     0.3980     0.0590 ca         1 4ZB      -0.029200
      7 C12          6.5640    -1.4780     0.6370 c3         1 4ZB      -0.107600
      8 C13          6.1690    -1.0170    -1.8640 c3         1 4ZB      -0.107600
      9 N3           4.3680     2.6260     0.4140 nc         1 4ZB      -0.556100
     10 C1           6.8280     2.7140     0.0450 c3         1 4ZB      -0.114400
     11 C2           5.5150     1.9840     0.1170 cd         1 4ZB       0.420800
     12 N6           1.2580     0.5320     0.5190 nb         1 4ZB      -0.677000
     13 N10          5.3630     0.6040    -0.1130 na         1 4ZB      -0.182600
     14 N14          1.0410    -1.7530     0.1450 nu         1 4ZB      -0.922800
     15 C15         -0.3250    -1.9930     0.1280 ca         1 4ZB       0.430900
     16 C16         -0.7720    -3.3120     0.2320 ca         1 4ZB      -0.352000
     17 C17         -2.1540    -3.5350     0.1900 ca         1 4ZB       0.170900
     18 N18         -3.0220    -2.5190     0.0470 nb         1 4ZB      -0.282000
     19 C19         -2.4940    -1.2810    -0.0540 ca         1 4ZB       0.422900
     20 N20         -1.1840    -0.9740    -0.0240 nb         1 4ZB      -0.288000
     21 N21         -3.4000    -0.2070    -0.2070 nh         1 4ZB      -0.782300
     22 C22         -2.9760     1.2100    -0.3830 c5         1 4ZB       0.235800
     23 C23         -4.3080     1.8860    -0.7980 c5         1 4ZB      -0.078400
     24 C24         -5.3660     1.0950     0.0440 c5         1 4ZB      -0.155000
     25 C25         -4.8820    -0.3630    -0.2110 c5         1 4ZB       0.246800
     26 C26         -5.3850     1.4900     1.5550 c3         1 4ZB      -0.083100
     27 C27         -6.7830     1.2340    -0.5860 c          1 4ZB       0.617100
     28 O28         -7.0860     1.9540    -1.5220 o          1 4ZB      -0.603100
     29 N29         -7.7410     0.4770    -0.0060 nt         1 4ZB      -0.609000
     30 H1           1.5440     2.5750     0.8540 h4         1 4ZB       0.036100
     31 H2           7.3450     0.1250    -0.5150 h1         1 4ZB       0.062700
     32 H3           3.6600    -1.7280    -0.2740 ha         1 4ZB       0.125000
     33 H4           7.4100    -2.1340     0.4000 hc         1 4ZB       0.048700
     34 H5           6.7660    -1.0030     1.6050 hc         1 4ZB       0.048700
     35 H6           5.6710    -2.1040     0.7430 hc         1 4ZB       0.048700
     36 H7           6.0990    -0.2250    -2.6180 hc         1 4ZB       0.048700
     37 H8           7.0100    -1.6670    -2.1340 hc         1 4ZB       0.048700
     38 H9           5.2530    -1.6150    -1.9090 hc         1 4ZB       0.048700
     39 H10          7.5390     2.3050     0.7710 hc         1 4ZB       0.059700
     40 H11          7.2690     2.6240    -0.9540 hc         1 4ZB       0.059700
     41 H12          6.7040     3.7820     0.2620 hc         1 4ZB       0.059700
     42 H13          1.5840    -2.6080     0.0940 hn         1 4ZB       0.502000
     43 H14         -0.0810    -4.1420     0.3460 ha         1 4ZB       0.127000
     44 H15         -2.5730    -4.5370     0.2690 h4         1 4ZB       0.013100
     45 H16         -2.5850     1.6280     0.5550 h1         1 4ZB       0.060200
     46 H17         -2.2100     1.3310    -1.1610 h1         1 4ZB       0.060200
     47 H18         -4.3110     2.9620    -0.5950 hc         1 4ZB       0.068200
     48 H19         -4.4680     1.7600    -1.8760 hc         1 4ZB       0.068200
     49 H20         -5.2260    -0.7430    -1.1840 h1         1 4ZB       0.056700
     50 H21         -5.2380    -1.0490     0.5710 h1         1 4ZB       0.056700
     51 H22         -6.0700     0.8580     2.1320 hc         1 4ZB       0.044367
     52 H23         -4.3970     1.3910     2.0200 hc         1 4ZB       0.044367
     53 H24         -5.7060     2.5300     1.6840 hc         1 4ZB       0.044367
     54 H25         -7.5190    -0.1100     0.7830 hn         1 4ZB       0.314000
     55 H26         -8.6860     0.5250    -0.3590 hn         1 4ZB       0.314000
@<TRIPOS>BOND
     1     1     2 ar  
     2     1     6 ar  
     3     1     9 1   
     4     2    12 ar  
     5     2    30 1   
     6     3     7 1   
     7     3     8 1   
     8     3    13 1   
     9     3    31 1   
    10     4     5 ar  
    11     4    12 ar  
    12     4    14 1   
    13     5     6 ar  
    14     5    32 1   
    15     6    13 1   
    16     7    33 1   
    17     7    34 1   
    18     7    35 1   
    19     8    36 1   
    20     8    37 1   
    21     8    38 1   
    22     9    11 2   
    23    10    11 1   
    24    10    39 1   
    25    10    40 1   
    26    10    41 1   
    27    11    13 1   
    28    14    15 1   
    29    14    42 1   
    30    15    16 ar  
    31    15    20 ar  
    32    16    17 ar  
    33    16    43 1   
    34    17    18 ar  
    35    17    44 1   
    36    18    19 ar  
    37    19    20 ar  
    38    19    21 1   
    39    21    22 1   
    40    21    25 1   
    41    22    23 1   
    42    22    45 1   
    43    22    46 1   
    44    23    24 1   
    45    23    47 1   
    46    23    48 1   
    47    24    25 1   
    48    24    26 1   
    49    24    27 1   
    50    25    49 1   
    51    25    50 1   
    52    26    51 1   
    53    26    52 1   
    54    26    53 1   
    55    27    28 2   
    56    27    29 1   
    57    29    54 1   
    58    29    55 1   
@<TRIPOS>SUBSTRUCTURE
     1 4ZB         1 TEMP              0 ****  ****    0 ROOT
