@<TRIPOS>MOLECULE
4ZB
   55    58     1     0     0
SMALL
bcc


@<TRIPOS>ATOM
      1 C4           3.1830     1.3510     1.1290 ca         1 4ZB      -0.069900
      2 C5           1.9920     1.2210     1.8310 ca         1 4ZB       0.490200
      3 C11          5.7260    -0.1140    -1.0110 c3         1 4ZB       0.065000
      4 C7           1.7800    -0.9600     1.1580 ca         1 4ZB       0.670200
      5 C8           2.9510    -0.9520     0.4100 ca         1 4ZB      -0.287300
      6 C9           3.6650     0.2390     0.4230 ca         1 4ZB      -0.029200
      7 C12          6.3060    -1.3110    -0.2690 c3         1 4ZB      -0.107600
      8 C13          5.0420    -0.5020    -2.3150 c3         1 4ZB      -0.107600
      9 N3           4.0360     2.4140     0.9820 nc         1 4ZB      -0.556100
     10 C1           6.1580     2.7870    -0.2190 c3         1 4ZB      -0.114400
     11 C2           4.9970     1.9740     0.2190 cd         1 4ZB       0.420800
     12 N6           1.3230     0.0820     1.8540 nb         1 4ZB      -0.677000
     13 N10          4.8310     0.6610    -0.1530 na         1 4ZB      -0.153300
     14 N14          1.0490    -2.1530     1.2380 nu         1 4ZB      -0.867600
     15 C15         -0.2790    -2.2940     0.9730 ca         1 4ZB       0.759200
     16 C16         -0.8790    -3.5620     1.0910 ca         1 4ZB      -0.500600
     17 C17         -2.2170    -3.6180     0.7820 ca         1 4ZB       0.499200
     18 N18         -2.9390    -2.5690     0.3990 nb         1 4ZB      -0.808000
     19 C19         -2.2690    -1.4120     0.3300 ca         1 4ZB       0.948900
     20 N20         -0.9710    -1.2350     0.5930 nb         1 4ZB      -0.814000
     21 N21         -2.9560    -0.3190    -0.0470 nh         1 4ZB      -0.782300
     22 C22         -2.3480     0.9920    -0.2040 c5         1 4ZB       0.235800
     23 C23         -3.4550     1.8090    -0.8590 c5         1 4ZB      -0.078400
     24 C24         -4.7420     1.1600    -0.3440 c5         1 4ZB      -0.155000
     25 C25         -4.3700    -0.3330    -0.3550 c5         1 4ZB       0.246800
     26 C26         -5.0520     1.6270     1.0850 c3         1 4ZB      -0.083100
     27 C27         -5.9390     1.4740    -1.2290 c          1 4ZB       0.684100
     28 O28         -5.9320     2.4000    -2.0280 o          1 4ZB      -0.603100
     29 N29         -7.0090     0.6840    -1.0510 nt         1 4ZB      -0.676000
     30 H1           1.5840     2.0510     2.3990 h4         1 4ZB       0.036100
     31 H2           6.5520     0.5530    -1.2560 h1         1 4ZB       0.062700
     32 H3           3.2560    -1.8270    -0.1460 ha         1 4ZB       0.143000
     33 H4           7.0530    -1.7940    -0.8990 hc         1 4ZB       0.048700
     34 H5           6.7930    -1.0030     0.6560 hc         1 4ZB       0.048700
     35 H6           5.5490    -2.0570    -0.0280 hc         1 4ZB       0.048700
     36 H7           4.6410     0.3730    -2.8260 hc         1 4ZB       0.048700
     37 H8           5.7690    -0.9760    -2.9750 hc         1 4ZB       0.048700
     38 H9           4.2300    -1.2110    -2.1600 hc         1 4ZB       0.048700
     39 H10          7.1030     2.3570     0.1170 hc         1 4ZB       0.059700
     40 H11          6.2020     2.8720    -1.3060 hc         1 4ZB       0.059700
     41 H12          6.0710     3.7870     0.1970 hc         1 4ZB       0.059700
     42 H13          1.5850    -3.0050     1.2900 hn         1 4ZB       0.446800
     43 H14         -0.3270    -4.4380     1.4010 ha         1 4ZB       0.145000
     44 H15         -2.7450    -4.5640     0.8440 h4         1 4ZB       0.013100
     45 H16         -2.0490     1.4040     0.7640 h1         1 4ZB       0.060200
     46 H17         -1.4500     0.9430    -0.8210 h1         1 4ZB       0.060200
     47 H18         -3.3840     2.8690    -0.6150 hc         1 4ZB       0.068200
     48 H19         -3.3930     1.7160    -1.9450 hc         1 4ZB       0.068200
     49 H20         -4.5610    -0.7820    -1.3370 h1         1 4ZB       0.056700
     50 H21         -4.9290    -0.9120     0.3830 h1         1 4ZB       0.056700
     51 H22         -5.8820     1.0700     1.5190 hc         1 4ZB       0.044367
     52 H23         -4.1870     1.4880     1.7350 hc         1 4ZB       0.044367
     53 H24         -5.3090     2.6880     1.1020 hc         1 4ZB       0.044367
     54 H25         -7.0260    -0.0640    -0.3800 hn         1 4ZB       0.314000
     55 H26         -7.8570     0.8520    -1.5680 hn         1 4ZB       0.314000
@<TRIPOS>BOND
     1     1     2 ar  
     2     1     6 ar  
     3     1     9 1   
     4     2    12 ar  
     5     2    30 1   
     6     3     7 1   
     7     3     8 1   
     8     3    13 1   
     9     3    31 1   
    10     4     5 ar  
    11     4    12 ar  
    12     4    14 1   
    13     5     6 ar  
    14     5    32 1   
    15     6    13 1   
    16     7    33 1   
    17     7    34 1   
    18     7    35 1   
    19     8    36 1   
    20     8    37 1   
    21     8    38 1   
    22     9    11 2   
    23    10    11 1   
    24    10    39 1   
    25    10    40 1   
    26    10    41 1   
    27    11    13 1   
    28    14    15 1   
    29    14    42 1   
    30    15    16 ar  
    31    15    20 ar  
    32    16    17 ar  
    33    16    43 1   
    34    17    18 ar  
    35    17    44 1   
    36    18    19 ar  
    37    19    20 ar  
    38    19    21 1   
    39    21    22 1   
    40    21    25 1   
    41    22    23 1   
    42    22    45 1   
    43    22    46 1   
    44    23    24 1   
    45    23    47 1   
    46    23    48 1   
    47    24    25 1   
    48    24    26 1   
    49    24    27 1   
    50    25    49 1   
    51    25    50 1   
    52    26    51 1   
    53    26    52 1   
    54    26    53 1   
    55    27    28 2   
    56    27    29 1   
    57    29    54 1   
    58    29    55 1   
@<TRIPOS>SUBSTRUCTURE
     1 4ZB         1 TEMP              0 ****  ****    0 ROOT
