@<TRIPOS>MOLECULE
4ZC
   14    14     1     0     0
SMALL
bcc


@<TRIPOS>ATOM
      1 O01         -2.5810     1.2580     0.1920 oh         1 4ZC      -0.473100
      2 C02         -1.2980     0.9030     0.1280 ca         1 4ZC       0.182100
      3 C03         -0.2410     1.8080     0.1450 ca         1 4ZC      -0.225000
      4 C04          1.0650     1.3610     0.0740 ca         1 4ZC      -0.056000
      5 C05          1.3350    -0.0000    -0.0150 ca         1 4ZC      -0.020600
      6 CL06         2.9740    -0.5460    -0.1020 cl         1 4ZC      -0.094400
      7 C07          0.3070    -0.9180    -0.0330 ca         1 4ZC      -0.045000
      8 C08         -1.0110    -0.4650     0.0380 ca         1 4ZC      -0.051000
      9 C09         -2.0840    -1.3990     0.0170 cg         1 4ZC       0.244800
     10 N10         -2.9500    -2.1590    -0.0000 n1         1 4ZC      -0.355800
     11 H1          -2.6760     2.2170     0.2380 ho         1 4ZC       0.437000
     12 H2          -0.4360     2.8710     0.2140 ha         1 4ZC       0.143000
     13 H3           1.8740     2.0770     0.0890 ha         1 4ZC       0.151000
     14 H4           0.5050    -1.9780    -0.1040 ha         1 4ZC       0.162000
@<TRIPOS>BOND
     1     1     2 1   
     2     1    11 1   
     3     2     3 ar  
     4     2     8 ar  
     5     3     4 ar  
     6     3    12 1   
     7     4     5 ar  
     8     4    13 1   
     9     5     6 1   
    10     5     7 ar  
    11     7     8 ar  
    12     7    14 1   
    13     8     9 1   
    14     9    10 3   
@<TRIPOS>SUBSTRUCTURE
     1 4ZC         1 TEMP              0 ****  ****    0 ROOT
