@<TRIPOS>MOLECULE
4ZC
   14    14     1     0     0
SMALL
No Charge or Current Charge


@<TRIPOS>ATOM
      1 O01         -2.6080     1.3460     0.1940 oh         1 4ZC      -0.512100
      2 C02         -1.3220     0.8900     0.1250 ca         1 4ZC       0.182100
      3 C03         -0.2660     1.8180     0.1440 ca         1 4ZC      -0.207000
      4 C04          1.0680     1.3750     0.0750 ca         1 4ZC      -0.038000
      5 C05          1.3460     0.0020    -0.0150 ca         1 4ZC       0.071000
      6 Cl06         3.0130    -0.5520    -0.1020 cl         1 4ZC      -0.186000
      7 C07          0.2960    -0.9310    -0.0340 ca         1 4ZC      -0.027000
      8 C08         -1.0430    -0.4930     0.0350 ca         1 4ZC      -0.051000
      9 C09         -2.1020    -1.4650     0.0130 cg         1 4ZC       0.334000
     10 N10         -2.9500    -2.2680    -0.0050 n1         1 4ZC      -0.445000
     11 H1          -2.5890     2.3250     0.2510 ho         1 4ZC       0.476000
     12 H2          -0.4690     2.8840     0.2130 ha         1 4ZC       0.125000
     13 H3           1.8840     2.0940     0.0900 ha         1 4ZC       0.133000
     14 H4           0.5240    -1.9930    -0.1040 ha         1 4ZC       0.144000
@<TRIPOS>BOND
     1     1     2 1   
     2     1    11 1   
     3     2     3 ar  
     4     2     8 ar  
     5     3     4 ar  
     6     3    12 1   
     7     4     5 ar  
     8     4    13 1   
     9     5     6 1   
    10     5     7 ar  
    11     7     8 ar  
    12     7    14 1   
    13     8     9 1   
    14     9    10 3   
@<TRIPOS>SUBSTRUCTURE
     1 4ZC         1 TEMP              0 ****  ****    0 ROOT
