@<TRIPOS>MOLECULE
4ZD
   19    19     1     0     0
SMALL
No Charge or Current Charge


@<TRIPOS>ATOM
      1 C10         -4.0210     1.0180     0.0170 ca         1 4ZD      -0.132000
      2 O01          3.3500     1.5890     0.7450 o          1 4ZD      -0.717000
      3 C02          3.6120     0.4250     0.4850 c          1 4ZD       0.701200
      4 O03          4.7400    -0.0390     0.5280 o          1 4ZD      -0.717000
      5 C04          2.5020    -0.4920     0.0900 ce         1 4ZD      -0.213200
      6 C05          1.2000    -0.1350    -0.0060 c2         1 4ZD      -0.154400
      7 S06         -0.0710    -1.2940    -0.4950 ss         1 4ZD      -0.170600
      8 C07         -1.5970    -0.3830    -0.2870 ca         1 4ZD      -0.079000
      9 C08         -1.8060     0.4330     0.8420 ca         1 4ZD      -0.100500
     10 C09         -3.0150     1.1340     0.9910 ca         1 4ZD      -0.113000
     11 C11         -3.8200     0.1960    -1.1060 ca         1 4ZD      -0.113000
     12 C12         -2.6110    -0.5060    -1.2550 ca         1 4ZD      -0.100500
     13 H1          -4.9570     1.5600     0.1330 ha         1 4ZD       0.097000
     14 H3           2.8060    -1.5130    -0.1280 ha         1 4ZD       0.156000
     15 H5           0.8680     0.8840     0.2010 h4         1 4ZD       0.206000
     16 H7          -1.0390     0.5170     1.6080 ha         1 4ZD       0.126000
     17 H8          -3.1740     1.7640     1.8630 ha         1 4ZD       0.100500
     18 H9          -4.5990     0.1020    -1.8580 ha         1 4ZD       0.100500
     19 H10         -2.4580    -1.1410    -2.1250 ha         1 4ZD       0.126000
@<TRIPOS>BOND
     1     1    10 ar  
     2     1    11 ar  
     3     1    13 1   
     4     2     3 1   
     5     3     4 1   
     6     3     5 1   
     7     5     6 2   
     8     5    14 1   
     9     6     7 1   
    10     6    15 1   
    11     7     8 1   
    12     8     9 ar  
    13     8    12 ar  
    14     9    10 ar  
    15     9    16 1   
    16    10    17 1   
    17    11    12 ar  
    18    11    18 1   
    19    12    19 1   
@<TRIPOS>SUBSTRUCTURE
     1 4ZD         1 TEMP              0 ****  ****    0 ROOT
