@<TRIPOS>MOLECULE
4ZD
   19    19     1     0     0
SMALL
bcc


@<TRIPOS>ATOM
      1 C10         -3.9590     0.9280     0.1530 ca         1 4ZD      -0.150000
      2 O01          3.2500     1.6540     0.5490 o          1 4ZD      -0.822300
      3 C02          3.4710     0.4310     0.6350 c          1 4ZD       0.911800
      4 O03          4.5120    -0.1180     1.0480 o          1 4ZD      -0.822300
      5 C04          2.3670    -0.5130     0.2100 ce         1 4ZD      -0.163200
      6 C05          1.1920    -0.0760    -0.2390 c2         1 4ZD      -0.104400
      7 S06         -0.0410    -1.1550    -0.8600 ss         1 4ZD      -0.297500
      8 C07         -1.5360    -0.3060    -0.4490 ca         1 4ZD       0.047900
      9 C08         -1.6580     0.4650     0.7040 ca         1 4ZD      -0.118500
     10 C09         -2.8650     1.0880     0.9930 ca         1 4ZD      -0.131000
     11 C11         -3.8390     0.1430    -0.9870 ca         1 4ZD      -0.131000
     12 C12         -2.6310    -0.4650    -1.2960 ca         1 4ZD      -0.118500
     13 H1          -4.8990     1.4100     0.3850 ha         1 4ZD       0.115000
     14 H3           2.5600    -1.5790     0.2860 ha         1 4ZD       0.106000
     15 H5           0.9800     0.9860    -0.3090 h4         1 4ZD       0.156000
     16 H7          -0.8210     0.5780     1.3800 ha         1 4ZD       0.144000
     17 H8          -2.9500     1.6930     1.8870 ha         1 4ZD       0.118500
     18 H9          -4.6850     0.0120    -1.6490 ha         1 4ZD       0.118500
     19 H10         -2.5390    -1.0560    -2.1990 ha         1 4ZD       0.144000
@<TRIPOS>BOND
     1     1    10 ar  
     2     1    11 ar  
     3     1    13 1   
     4     2     3 1   
     5     3     4 1   
     6     3     5 1   
     7     5     6 2   
     8     5    14 1   
     9     6     7 1   
    10     6    15 1   
    11     7     8 1   
    12     8     9 ar  
    13     8    12 ar  
    14     9    10 ar  
    15     9    16 1   
    16    10    17 1   
    17    11    12 ar  
    18    11    18 1   
    19    12    19 1   
@<TRIPOS>SUBSTRUCTURE
     1 4ZD         1 TEMP              0 ****  ****    0 ROOT
