@<TRIPOS>MOLECULE
4ZE
   18    18     1     0     0
SMALL
bcc


@<TRIPOS>ATOM
      1 C1          -1.7590     1.7710    -0.0850 c3         1 4ZE      -0.051800
      2 C2          -0.7110     0.6940    -0.0520 ca         1 4ZE      -0.129300
      3 C3           0.6380     1.0200     0.0530 ca         1 4ZE      -0.148000
      4 C4           1.6410     0.0490     0.0870 ca         1 4ZE       0.102600
      5 N5           2.9760     0.4030     0.2550 nv         1 4ZE      -0.805200
      6 C6           1.2520    -1.2880     0.0090 ca         1 4ZE      -0.154000
      7 C7          -0.0870    -1.6310    -0.0950 ca         1 4ZE      -0.125000
      8 C8          -1.0730    -0.6530    -0.1260 ca         1 4ZE       0.102100
      9 O9          -2.3650    -1.0650    -0.2280 oh         1 4ZE      -0.504100
     10 H1          -2.3270     1.7630    -1.0190 hc         1 4ZE       0.042033
     11 H2          -2.4760     1.6710     0.7340 hc         1 4ZE       0.042033
     12 H3          -1.3070     2.7570     0.0040 hc         1 4ZE       0.042033
     13 H4           0.9130     2.0680     0.1140 ha         1 4ZE       0.128000
     14 H5           3.2080     1.3230    -0.0850 hn         1 4ZE       0.379300
     15 H6           3.6290    -0.2740    -0.1080 hn         1 4ZE       0.379300
     16 H7           2.0000    -2.0710     0.0310 ha         1 4ZE       0.132000
     17 H8          -0.3710    -2.6750    -0.1560 ha         1 4ZE       0.144000
     18 H9          -2.9650    -0.3120    -0.2480 ho         1 4ZE       0.423000
@<TRIPOS>BOND
     1     1     2 1   
     2     1    10 1   
     3     1    11 1   
     4     1    12 1   
     5     2     3 ar  
     6     2     8 ar  
     7     3     4 ar  
     8     3    13 1   
     9     4     5 1   
    10     4     6 ar  
    11     5    14 1   
    12     5    15 1   
    13     6     7 ar  
    14     6    16 1   
    15     7     8 ar  
    16     7    17 1   
    17     8     9 1   
    18     9    18 1   
@<TRIPOS>SUBSTRUCTURE
     1 4ZE         1 TEMP              0 ****  ****    0 ROOT
