@<TRIPOS>MOLECULE
4ZF
   25    27     1     0     0
SMALL
No Charge or Current Charge


@<TRIPOS>ATOM
      1 C10         -1.0780    -1.9330     0.0140 cc         1 4ZF       0.461500
      2 C13         -4.3240    -0.5890    -0.0510 ca         1 4ZF      -0.077000
      3 C15         -3.7640     1.7960     0.0250 ca         1 4ZF      -0.139000
      4 C17         -2.0140     0.1370     0.0250 ca         1 4ZF      -0.070800
      5 O01          4.5640    -1.3230     0.0670 o          1 4ZF      -0.679000
      6 O03          5.0180     0.7770    -0.0250 o          1 4ZF      -0.679000
      7 C04          2.7610     0.1820     0.0210 cc         1 4ZF      -0.077600
      8 C05          1.7280    -0.7380     0.0810 cd         1 4ZF      -0.275000
      9 C06          0.5200    -0.0240     0.0780 cd         1 4ZF       0.140000
     10 N07          0.7360     1.3180     0.0320 na         1 4ZF      -0.222000
     11 N08          2.1330     1.4440    -0.0190 na         1 4ZF      -0.183000
     12 C09         -0.7560    -0.5500     0.0450 cc         1 4ZF      -0.385800
     13 N11         -2.3930    -2.1870    -0.0280 nd         1 4ZF      -0.635100
     14 C12         -2.9530    -0.8900    -0.0210 ca         1 4ZF       0.080400
     15 C14         -4.7260     0.7630    -0.0300 ca         1 4ZF      -0.160000
     16 C16         -2.3880     1.4920     0.0550 ca         1 4ZF      -0.120000
     17 H1          -0.3910    -2.7690     0.0170 h4         1 4ZF       0.010800
     18 H2          -5.0620    -1.3860    -0.0880 ha         1 4ZF       0.101000
     19 H3          -4.0870     2.8340     0.0470 ha         1 4ZF       0.082000
     20 H6           1.8410    -1.8170     0.1090 ha         1 4ZF       0.169000
     21 H9           0.1420     2.0360    -0.3680 hn         1 4ZF       0.375000
     22 H10          2.5520     2.3690     0.0730 hn         1 4ZF       0.397000
     23 H12         -5.7850     1.0110    -0.0520 ha         1 4ZF       0.085000
     24 H13         -1.6630     2.2960     0.1070 ha         1 4ZF       0.068000
     25 C02          4.2190    -0.1500     0.0210 c          1 4ZF       0.733600
@<TRIPOS>BOND
     1     1    12 1   
     2     1    13 2   
     3     1    17 1   
     4     2    14 ar  
     5     2    15 ar  
     6     2    18 1   
     7     3    15 ar  
     8     3    16 ar  
     9     3    19 1   
    10     4    12 1   
    11     4    14 ar  
    12     4    16 ar  
    13     5    25 1   
    14     6    25 1   
    15     7     8 2   
    16     7    11 1   
    17     7    25 1   
    18     8     9 1   
    19     8    20 1   
    20     9    10 1   
    21     9    12 2   
    22    10    11 1   
    23    10    21 1   
    24    11    22 1   
    25    13    14 1   
    26    15    23 1   
    27    16    24 1   
@<TRIPOS>SUBSTRUCTURE
     1 4ZF         1 TEMP              0 ****  ****    0 ROOT
