@<TRIPOS>MOLECULE
4ZF
   25    27     1     0     0
SMALL
abcg2


@<TRIPOS>ATOM
      1 C10         -1.1610    -1.9350    -0.0330 cc         1 4ZF       0.461500
      2 C13         -4.3860    -0.5610    -0.0230 ca         1 4ZF      -0.077000
      3 C15         -3.7830     1.7830     0.0320 ca         1 4ZF      -0.139000
      4 C17         -2.0360     0.1340    -0.0040 ca         1 4ZF      -0.070800
      5 O01          4.6930    -1.1870     0.1600 o          1 4ZF      -0.679000
      6 O03          4.9180     1.0430     0.0360 o          1 4ZF      -0.679000
      7 C04          2.7750     0.1310     0.0360 cc         1 4ZF      -0.077600
      8 C05          1.7610    -0.8030     0.0670 cd         1 4ZF      -0.275000
      9 C06          0.5430    -0.0970     0.0020 cd         1 4ZF       0.140000
     10 N07          0.8810     1.2030    -0.0550 na         1 4ZF      -0.222000
     11 N08          2.2130     1.3370    -0.0480 na         1 4ZF      -0.183000
     12 C09         -0.7940    -0.5740    -0.0100 cc         1 4ZF      -0.385800
     13 N11         -2.4700    -2.1390    -0.0440 nd         1 4ZF      -0.635100
     14 C12         -3.0280    -0.8890    -0.0260 ca         1 4ZF       0.080400
     15 C14         -4.7550     0.7720     0.0050 ca         1 4ZF      -0.160000
     16 C16         -2.4330     1.4770     0.0290 ca         1 4ZF      -0.120000
     17 H1          -0.4710    -2.7720    -0.0470 h4         1 4ZF       0.010800
     18 H2          -5.1360    -1.3440    -0.0400 ha         1 4ZF       0.101000
     19 H3          -4.0920     2.8210     0.0570 ha         1 4ZF       0.082000
     20 H6           1.8790    -1.8700     0.1310 ha         1 4ZF       0.169000
     21 H9           0.2960     2.0140    -0.1800 hn         1 4ZF       0.375000
     22 H10          2.6560     2.2430    -0.0580 hn         1 4ZF       0.397000
     23 H12         -5.8040     1.0400     0.0080 ha         1 4ZF       0.085000
     24 H13         -1.7190     2.2920     0.0580 ha         1 4ZF       0.068000
     25 C02          4.2830    -0.0230     0.0830 c          1 4ZF       0.733600
@<TRIPOS>BOND
     1     1    12 1   
     2     1    13 2   
     3     1    17 1   
     4     2    14 ar  
     5     2    15 ar  
     6     2    18 1   
     7     3    15 ar  
     8     3    16 ar  
     9     3    19 1   
    10     4    12 1   
    11     4    14 ar  
    12     4    16 ar  
    13     5    25 1   
    14     6    25 1   
    15     7     8 2   
    16     7    11 1   
    17     7    25 1   
    18     8     9 1   
    19     8    20 1   
    20     9    10 1   
    21     9    12 2   
    22    10    11 1   
    23    10    21 1   
    24    11    22 1   
    25    13    14 1   
    26    15    23 1   
    27    16    24 1   
@<TRIPOS>SUBSTRUCTURE
     1 4ZF         1 TEMP              0 ****  ****    0 ROOT
