@<TRIPOS>MOLECULE
4ZG
   56    58     1     0     0
SMALL
abcg2


@<TRIPOS>ATOM
      1 C4         -54.1210     1.8100   -21.1810 ca         1 4ZG      -0.013600
      2 C5         -55.1870     2.6470   -21.4800 ca         1 4ZG       0.436900
      3 C11        -52.0640    -1.0200   -22.2060 c3         1 4ZG       0.094300
      4 C7         -55.5030     1.5790   -23.5140 ca         1 4ZG       0.602900
      5 C8         -54.4590     0.6750   -23.3150 ca         1 4ZG      -0.190000
      6 C9         -53.7700     0.8220   -22.1190 ca         1 4ZG      -0.026200
      7 C12        -50.5510    -0.8750   -22.3330 c3         1 4ZG      -0.106600
      8 C13        -52.4900    -2.3120   -21.5150 c3         1 4ZG      -0.106600
      9 N3         -53.2780     1.7360   -20.0850 nc         1 4ZG      -0.560100
     10 C1         -51.3530     0.3440   -19.4220 c3         1 4ZG      -0.108400
     11 C2         -52.4490     0.7480   -20.3430 cd         1 4ZG       0.424800
     12 N6         -55.8590     2.5300   -22.6230 nb         1 4ZG      -0.748000
     13 N10        -52.6980     0.1530   -21.5730 na         1 4ZG      -0.194600
     14 N14        -56.3020     1.6130   -24.6610 nu         1 4ZG      -0.903800
     15 C15        -56.2420     0.9050   -25.8280 ca         1 4ZG       0.426900
     16 C16        -57.1100     1.2490   -26.8840 ca         1 4ZG      -0.334000
     17 C17        -56.9780     0.5190   -28.0440 ca         1 4ZG       0.171900
     18 N18        -56.0990    -0.4790   -28.2020 nb         1 4ZG      -0.256000
     19 C19        -55.3330    -0.7410   -27.1290 ca         1 4ZG       0.410900
     20 N20        -55.3630    -0.0900   -25.9550 nb         1 4ZG      -0.322000
     21 N21        -54.4530    -1.7670   -27.2400 nu         1 4ZG      -0.931100
     22 C22        -53.4670    -2.0420   -26.2130 c3         1 4ZG       0.244800
     23 C23        -52.6580    -3.3260   -26.4620 c3         1 4ZG      -0.243000
     24 C24        -53.5540    -4.5360   -26.7240 c3         1 4ZG      -0.081600
     25 C25        -51.7500    -3.5590   -25.2540 c3         1 4ZG      -0.081600
     26 S26        -51.6040    -3.0070   -27.9350 s6         1 4ZG       1.065000
     27 O27        -52.4720    -2.9260   -29.1050 o          1 4ZG      -0.520000
     28 O28        -50.7610    -1.8570   -27.6520 o          1 4ZG      -0.520000
     29 C29        -50.5540    -4.4270   -28.1480 c3         1 4ZG      -0.328100
     30 H1         -55.5070     3.4250   -20.7940 h4         1 4ZG       0.035100
     31 H2         -52.4730    -1.0290   -23.2160 h1         1 4ZG       0.064700
     32 H3         -54.2270    -0.0670   -24.0560 ha         1 4ZG       0.160000
     33 H4         -50.2890     0.0890   -22.7700 hc         1 4ZG       0.048367
     34 H5         -50.0460    -0.9760   -21.3740 hc         1 4ZG       0.048367
     35 H6         -50.1790    -1.6620   -22.9890 hc         1 4ZG       0.048367
     36 H7         -53.5780    -2.3950   -21.4940 hc         1 4ZG       0.048367
     37 H8         -52.0900    -3.1670   -22.0610 hc         1 4ZG       0.048367
     38 H9         -52.1170    -2.3620   -20.4920 hc         1 4ZG       0.048367
     39 H10        -51.5050     0.8430   -18.4680 hc         1 4ZG       0.059033
     40 H11        -51.3280    -0.7330   -19.2600 hc         1 4ZG       0.059033
     41 H12        -50.3800     0.6420   -19.8190 hc         1 4ZG       0.059033
     42 H13        -56.9890     2.3530   -24.6310 hn         1 4ZG       0.515000
     43 H14        -57.8260     2.0540   -26.7920 ha         1 4ZG       0.134000
     44 H15        -57.6070     0.7430   -28.9000 h4         1 4ZG       0.022100
     45 H16        -54.2670    -2.0900   -28.1770 hn         1 4ZG       0.526000
     46 H17        -52.7830    -1.1990   -26.0800 h1         1 4ZG       0.066700
     47 H18        -53.9770    -2.1870   -25.2600 h1         1 4ZG       0.066700
     48 H19        -54.2390    -4.6390   -25.8800 hc         1 4ZG       0.054033
     49 H20        -54.1430    -4.4260   -27.6310 hc         1 4ZG       0.054033
     50 H21        -52.9670    -5.4520   -26.7930 hc         1 4ZG       0.054033
     51 H22        -52.3820    -3.6910   -24.3760 hc         1 4ZG       0.054033
     52 H23        -51.1500    -4.4600   -25.3720 hc         1 4ZG       0.054033
     53 H24        -51.0890    -2.7110   -25.0790 hc         1 4ZG       0.054033
     54 H25        -51.1660    -5.3140   -28.2880 h1         1 4ZG       0.105033
     55 H26        -49.9820    -4.2140   -29.0510 h1         1 4ZG       0.105033
     56 H27        -49.8920    -4.5260   -27.2930 h1         1 4ZG       0.105033
@<TRIPOS>BOND
     1     1     2 ar  
     2     1     6 ar  
     3     1     9 1   
     4     2    12 ar  
     5     2    30 1   
     6     3     7 1   
     7     3     8 1   
     8     3    13 1   
     9     3    31 1   
    10     4     5 ar  
    11     4    12 ar  
    12     4    14 1   
    13     5     6 ar  
    14     5    32 1   
    15     6    13 1   
    16     7    33 1   
    17     7    34 1   
    18     7    35 1   
    19     8    36 1   
    20     8    37 1   
    21     8    38 1   
    22     9    11 2   
    23    10    11 1   
    24    10    39 1   
    25    10    40 1   
    26    10    41 1   
    27    11    13 1   
    28    14    15 1   
    29    14    42 1   
    30    15    16 ar  
    31    15    20 ar  
    32    16    17 ar  
    33    16    43 1   
    34    17    18 ar  
    35    17    44 1   
    36    18    19 ar  
    37    19    20 ar  
    38    19    21 1   
    39    21    22 1   
    40    21    45 1   
    41    22    23 1   
    42    22    46 1   
    43    22    47 1   
    44    23    24 1   
    45    23    25 1   
    46    23    26 1   
    47    24    48 1   
    48    24    49 1   
    49    24    50 1   
    50    25    51 1   
    51    25    52 1   
    52    25    53 1   
    53    26    27 2   
    54    26    28 2   
    55    26    29 1   
    56    29    54 1   
    57    29    55 1   
    58    29    56 1   
@<TRIPOS>SUBSTRUCTURE
     1 4ZG         1 TEMP              0 ****  ****    0 ROOT
