@<TRIPOS>MOLECULE
4ZG
   56    58     1     0     0
SMALL
No Charge or Current Charge


@<TRIPOS>ATOM
      1 C4         -54.4220     1.6270   -20.9510 ca         1 4ZG      -0.013600
      2 C5         -55.6230     2.3040   -21.2750 ca         1 4ZG       0.436900
      3 C11        -51.6760    -0.4700   -22.1430 c3         1 4ZG       0.094300
      4 C7         -55.4740     1.6110   -23.4700 ca         1 4ZG       0.602900
      5 C8         -54.2610     0.9300   -23.2400 ca         1 4ZG      -0.190000
      6 C9         -53.7560     0.9580   -21.9350 ca         1 4ZG      -0.026200
      7 C12        -50.1950    -0.1130   -21.8910 c3         1 4ZG      -0.106600
      8 C13        -51.9630    -1.9690   -21.9210 c3         1 4ZG      -0.106600
      9 N3         -53.7690     1.5160   -19.7270 nc         1 4ZG      -0.560100
     10 C1         -51.7180     0.3440   -18.9720 c3         1 4ZG      -0.108400
     11 C2         -52.7010     0.7510   -20.0360 cd         1 4ZG       0.424800
     12 N6         -56.1430     2.2960   -22.5340 nb         1 4ZG      -0.748000
     13 N10        -52.6280     0.3900   -21.4000 na         1 4ZG      -0.194600
     14 N14        -56.1310     1.6940   -24.6640 nu         1 4ZG      -0.903800
     15 C15        -56.0730     1.0140   -25.8650 ca         1 4ZG       0.426900
     16 C16        -56.8640     1.4260   -26.9400 ca         1 4ZG      -0.334000
     17 C17        -56.7750     0.6860   -28.1300 ca         1 4ZG       0.171900
     18 N18        -55.9620    -0.3830   -28.2320 nb         1 4ZG      -0.256000
     19 C19        -55.2530    -0.6930   -27.1340 ca         1 4ZG       0.410900
     20 N20        -55.2710    -0.0530   -25.9570 nb         1 4ZG      -0.322000
     21 N21        -54.4160    -1.7890   -27.2430 nu         1 4ZG      -0.931100
     22 C22        -53.4230    -2.2410   -26.2540 c3         1 4ZG       0.244800
     23 C23        -52.7500    -3.5870   -26.6360 c3         1 4ZG      -0.243000
     24 C24        -53.8180    -4.7030   -26.8710 c3         1 4ZG      -0.081600
     25 C25        -51.8320    -4.0210   -25.4510 c3         1 4ZG      -0.081600
     26 S26        -51.7290    -3.3190   -28.1500 s6         1 4ZG       1.065000
     27 O27        -52.6390    -3.0440   -29.2710 o          1 4ZG      -0.520000
     28 O28        -50.6760    -2.3460   -27.8320 o          1 4ZG      -0.520000
     29 C29        -50.9210    -4.8840   -28.4990 c3         1 4ZG      -0.328100
     30 H1         -56.1780     2.8540   -20.5160 h4         1 4ZG       0.035100
     31 H2         -51.8400    -0.2790   -23.2100 h1         1 4ZG       0.064700
     32 H3         -53.7410     0.4150   -24.0360 ha         1 4ZG       0.160000
     33 H4         -50.0320     0.9660   -22.0050 hc         1 4ZG       0.048367
     34 H5         -49.8710    -0.4120   -20.8880 hc         1 4ZG       0.048367
     35 H6         -49.5530    -0.6290   -22.6140 hc         1 4ZG       0.048367
     36 H7         -52.9980    -2.2060   -22.1960 hc         1 4ZG       0.048367
     37 H8         -51.2990    -2.5850   -22.5390 hc         1 4ZG       0.048367
     38 H9         -51.8130    -2.2500   -20.8720 hc         1 4ZG       0.048367
     39 H10        -52.1210     0.5260   -17.9700 hc         1 4ZG       0.059033
     40 H11        -51.4780    -0.7220   -19.0400 hc         1 4ZG       0.059033
     41 H12        -50.7880     0.9150   -19.0650 hc         1 4ZG       0.059033
     42 H13        -56.8930     2.3580   -24.5960 hn         1 4ZG       0.515000
     43 H14        -57.5220     2.2860   -26.8660 ha         1 4ZG       0.134000
     44 H15        -57.3590     0.9490   -29.0100 h4         1 4ZG       0.022100
     45 H16        -54.3510    -2.1830   -28.1830 hn         1 4ZG       0.526000
     46 H17        -52.6540    -1.4660   -26.1140 h1         1 4ZG       0.066700
     47 H18        -53.9220    -2.3700   -25.2820 h1         1 4ZG       0.066700
     48 H19        -54.4810    -4.7910   -26.0010 hc         1 4ZG       0.054033
     49 H20        -54.4450    -4.4930   -27.7460 hc         1 4ZG       0.054033
     50 H21        -53.3480    -5.6820   -27.0250 hc         1 4ZG       0.054033
     51 H22        -52.4160    -4.1310   -24.5280 hc         1 4ZG       0.054033
     52 H23        -51.3480    -4.9850   -25.6430 hc         1 4ZG       0.054033
     53 H24        -51.0470    -3.2780   -25.2580 hc         1 4ZG       0.054033
     54 H25        -51.6950    -5.6440   -28.6450 h1         1 4ZG       0.105033
     55 H26        -50.3330    -4.7480   -29.4120 h1         1 4ZG       0.105033
     56 H27        -50.2710    -5.1300   -27.6540 h1         1 4ZG       0.105033
@<TRIPOS>BOND
     1     1     2 ar  
     2     1     6 ar  
     3     1     9 1   
     4     2    12 ar  
     5     2    30 1   
     6     3     7 1   
     7     3     8 1   
     8     3    13 1   
     9     3    31 1   
    10     4     5 ar  
    11     4    12 ar  
    12     4    14 1   
    13     5     6 ar  
    14     5    32 1   
    15     6    13 1   
    16     7    33 1   
    17     7    34 1   
    18     7    35 1   
    19     8    36 1   
    20     8    37 1   
    21     8    38 1   
    22     9    11 2   
    23    10    11 1   
    24    10    39 1   
    25    10    40 1   
    26    10    41 1   
    27    11    13 1   
    28    14    15 1   
    29    14    42 1   
    30    15    16 ar  
    31    15    20 ar  
    32    16    17 ar  
    33    16    43 1   
    34    17    18 ar  
    35    17    44 1   
    36    18    19 ar  
    37    19    20 ar  
    38    19    21 1   
    39    21    22 1   
    40    21    45 1   
    41    22    23 1   
    42    22    46 1   
    43    22    47 1   
    44    23    24 1   
    45    23    25 1   
    46    23    26 1   
    47    24    48 1   
    48    24    49 1   
    49    24    50 1   
    50    25    51 1   
    51    25    52 1   
    52    25    53 1   
    53    26    27 2   
    54    26    28 2   
    55    26    29 1   
    56    29    54 1   
    57    29    55 1   
    58    29    56 1   
@<TRIPOS>SUBSTRUCTURE
     1 4ZG         1 TEMP              0 ****  ****    0 ROOT
