@<TRIPOS>MOLECULE
4ZH
   55    57     1     0     0
SMALL
abcg2


@<TRIPOS>ATOM
      1 C4         -54.2920     1.5580   -20.9830 ca         1 4ZH      -0.007600
      2 C5         -55.4310     2.3170   -21.2240 ca         1 4ZH       0.434900
      3 C11        -51.8890    -0.8580   -22.2790 c3         1 4ZH       0.094300
      4 C7         -55.6270     1.4110   -23.3480 ca         1 4ZH       0.589900
      5 C8         -54.4960     0.6040   -23.2190 ca         1 4ZH      -0.179000
      6 C9         -53.8400     0.6980   -21.9990 ca         1 4ZH      -0.030200
      7 C12        -51.5960    -2.1570   -21.5360 c3         1 4ZH      -0.106600
      8 C13        -50.6320    -0.1690   -22.8000 c3         1 4ZH      -0.106600
      9 N3         -53.4530     1.4670   -19.8860 nc         1 4ZH      -0.562100
     10 C1         -51.4290     0.1820   -19.3060 c3         1 4ZH      -0.109400
     11 C2         -52.5310     0.5890   -20.2170 cd         1 4ZH       0.428800
     12 N6         -56.0800     2.2390   -22.3830 nb         1 4ZH      -0.745000
     13 N10        -52.7210     0.0770   -21.4940 na         1 4ZH      -0.191600
     14 N14        -56.4250     1.4630   -24.4980 nu         1 4ZH      -0.895800
     15 C15        -56.3340     0.8070   -25.6860 ca         1 4ZH       0.425900
     16 C16        -57.2780     1.0810   -26.7040 ca         1 4ZH      -0.309000
     17 C17        -57.1240     0.4020   -27.8840 ca         1 4ZH       0.169900
     18 N18        -56.1360    -0.4940   -28.1020 nb         1 4ZH      -0.274000
     19 C19        -55.3230    -0.6770   -27.0760 ca         1 4ZH       0.394300
     20 N20        -55.3610    -0.0830   -25.8850 nb         1 4ZH      -0.279000
     21 O21        -54.3110    -1.5540   -27.1760 os         1 4ZH      -0.482300
     22 C22        -54.0680    -2.2000   -28.4280 c3         1 4ZH       0.192600
     23 C23        -52.8350    -3.0870   -28.2840 c3         1 4ZH      -0.230000
     24 C24        -52.9980    -4.1350   -27.1840 c3         1 4ZH      -0.081100
     25 C25        -52.5620    -3.7450   -29.6410 c3         1 4ZH      -0.081100
     26 S26        -51.3480    -2.0470   -27.9320 s6         1 4ZH       1.074000
     27 O27        -51.4150    -0.8610   -28.7740 o          1 4ZH      -0.524000
     28 O28        -50.1750    -2.8980   -28.0710 o          1 4ZH      -0.524000
     29 C29        -51.4170    -1.5240   -26.2320 c3         1 4ZH      -0.326100
     30 H1         -55.8270     2.9970   -20.4770 h4         1 4ZH       0.037100
     31 H2         -52.5130    -1.1120   -23.1350 h1         1 4ZH       0.067700
     32 H3         -54.1790    -0.0340   -24.0230 ha         1 4ZH       0.165000
     33 H4         -52.5090    -2.5780   -21.1130 hc         1 4ZH       0.049033
     34 H5         -51.1820    -2.8760   -22.2440 hc         1 4ZH       0.049033
     35 H6         -50.8690    -2.0200   -20.7370 hc         1 4ZH       0.049033
     36 H7         -50.8900     0.7290   -23.3630 hc         1 4ZH       0.049033
     37 H8         -49.9620     0.1100   -21.9860 hc         1 4ZH       0.049033
     38 H9         -50.0930    -0.8480   -23.4630 hc         1 4ZH       0.049033
     39 H10        -51.4190     0.8590   -18.4550 hc         1 4ZH       0.060033
     40 H11        -51.5810    -0.8350   -18.9380 hc         1 4ZH       0.060033
     41 H12        -50.4580     0.2160   -19.7970 hc         1 4ZH       0.060033
     42 H13        -57.1900     2.1170   -24.4090 hn         1 4ZH       0.518000
     43 H14        -58.0760     1.7950   -26.5570 ha         1 4ZH       0.139000
     44 H15        -57.8090     0.5680   -28.7080 h4         1 4ZH       0.028100
     45 H16        -53.9270    -1.4560   -29.2100 h1         1 4ZH       0.074200
     46 H17        -54.9180    -2.8320   -28.6910 h1         1 4ZH       0.074200
     47 H18        -53.7970    -4.8170   -27.4780 hc         1 4ZH       0.057200
     48 H19        -52.0840    -4.7140   -27.0600 hc         1 4ZH       0.057200
     49 H20        -53.2690    -3.6860   -26.2310 hc         1 4ZH       0.057200
     50 H21        -53.4470    -4.3140   -29.9290 hc         1 4ZH       0.057200
     51 H22        -52.3620    -3.0050   -30.4160 hc         1 4ZH       0.057200
     52 H23        -51.7180    -4.4280   -29.5760 hc         1 4ZH       0.057200
     53 H24        -51.3760    -2.3940   -25.5830 h1         1 4ZH       0.106700
     54 H25        -50.5270    -0.9100   -26.0980 h1         1 4ZH       0.106700
     55 H26        -52.3200    -0.9450   -26.0660 h1         1 4ZH       0.106700
@<TRIPOS>BOND
     1     1     2 ar  
     2     1     6 ar  
     3     1     9 1   
     4     2    12 ar  
     5     2    30 1   
     6     3     7 1   
     7     3     8 1   
     8     3    13 1   
     9     3    31 1   
    10     4     5 ar  
    11     4    12 ar  
    12     4    14 1   
    13     5     6 ar  
    14     5    32 1   
    15     6    13 1   
    16     7    33 1   
    17     7    34 1   
    18     7    35 1   
    19     8    36 1   
    20     8    37 1   
    21     8    38 1   
    22     9    11 2   
    23    10    11 1   
    24    10    39 1   
    25    10    40 1   
    26    10    41 1   
    27    11    13 1   
    28    14    15 1   
    29    14    42 1   
    30    15    16 ar  
    31    15    20 ar  
    32    16    17 ar  
    33    16    43 1   
    34    17    18 ar  
    35    17    44 1   
    36    18    19 ar  
    37    19    20 ar  
    38    19    21 1   
    39    21    22 1   
    40    22    23 1   
    41    22    45 1   
    42    22    46 1   
    43    23    24 1   
    44    23    25 1   
    45    23    26 1   
    46    24    47 1   
    47    24    48 1   
    48    24    49 1   
    49    25    50 1   
    50    25    51 1   
    51    25    52 1   
    52    26    27 2   
    53    26    28 2   
    54    26    29 1   
    55    29    53 1   
    56    29    54 1   
    57    29    55 1   
@<TRIPOS>SUBSTRUCTURE
     1 4ZH         1 TEMP              0 ****  ****    0 ROOT
