@<TRIPOS>MOLECULE
4ZH
   55    57     1     0     0
SMALL
No Charge or Current Charge


@<TRIPOS>ATOM
      1 C4         -54.4230     1.3730   -20.8540 ca         1 4ZH      -0.007600
      2 C5         -55.6740     1.9930   -21.0930 ca         1 4ZH       0.434900
      3 C11        -51.6580    -0.5750   -22.2410 c3         1 4ZH       0.094300
      4 C7         -55.6480     1.3000   -23.2940 ca         1 4ZH       0.589900
      5 C8         -54.3970     0.6660   -23.1470 ca         1 4ZH      -0.179000
      6 C9         -53.8070     0.7150   -21.8780 ca         1 4ZH      -0.030200
      7 C12        -51.2000    -1.8890   -21.5740 c3         1 4ZH      -0.106600
      8 C13        -50.4690     0.2920   -22.7060 c3         1 4ZH      -0.106600
      9 N3         -53.6650     1.3270   -19.6880 nc         1 4ZH      -0.562100
     10 C1         -51.4660     0.3410   -19.1040 c3         1 4ZH      -0.109400
     11 C2         -52.5820     0.6210   -20.0730 cd         1 4ZH       0.428800
     12 N6         -56.2800     1.9560   -22.3130 nb         1 4ZH      -0.745000
     13 N10        -52.6200     0.2000   -21.4220 na         1 4ZH      -0.191600
     14 N14        -56.3830     1.3750   -24.4430 nu         1 4ZH      -0.895800
     15 C15        -56.3180     0.7960   -25.6990 ca         1 4ZH       0.425900
     16 C16        -57.1690     1.2360   -26.7130 ca         1 4ZH      -0.309000
     17 C17        -57.0550     0.6150   -27.9640 ca         1 4ZH       0.169900
     18 N18        -56.1620    -0.3690   -28.1790 nb         1 4ZH      -0.274000
     19 C19        -55.3860    -0.7340   -27.1330 ca         1 4ZH       0.394300
     20 N20        -55.4390    -0.1920   -25.9050 nb         1 4ZH      -0.279000
     21 O21        -54.4550    -1.7330   -27.2980 os         1 4ZH      -0.482300
     22 C22        -54.0130    -2.1460   -28.6020 c3         1 4ZH       0.192600
     23 C23        -52.8940    -3.2170   -28.4470 c3         1 4ZH      -0.230000
     24 C24        -53.3570    -4.3950   -27.5300 c3         1 4ZH      -0.081100
     25 C25        -52.5770    -3.7920   -29.8610 c3         1 4ZH      -0.081100
     26 S26        -51.3510    -2.4340   -27.7900 s6         1 4ZH       1.074000
     27 O27        -51.0730    -1.2320   -28.5870 o          1 4ZH      -0.524000
     28 O28        -50.3200    -3.4770   -27.7090 o          1 4ZH      -0.524000
     29 C29        -51.6700    -1.8930   -26.1040 c3         1 4ZH      -0.326100
     30 H1         -56.1930     2.5310   -20.3010 h4         1 4ZH       0.037100
     31 H2         -52.1880    -0.8840   -23.1500 h1         1 4ZH       0.067700
     32 H3         -53.9080     0.1740   -23.9760 ha         1 4ZH       0.165000
     33 H4         -52.0640    -2.4620   -21.2150 hc         1 4ZH       0.049033
     34 H5         -50.6600    -2.5130   -22.2960 hc         1 4ZH       0.049033
     35 H6         -50.5290    -1.7030   -20.7290 hc         1 4ZH       0.049033
     36 H7         -50.8280     1.1780   -23.2420 hc         1 4ZH       0.049033
     37 H8         -49.8650     0.6270   -21.8550 hc         1 4ZH       0.049033
     38 H9         -49.8210    -0.2750   -23.3840 hc         1 4ZH       0.049033
     39 H10        -51.5270     0.9990   -18.2300 hc         1 4ZH       0.060033
     40 H11        -51.5150    -0.6930   -18.7450 hc         1 4ZH       0.060033
     41 H12        -50.4860     0.5010   -19.5660 hc         1 4ZH       0.060033
     42 H13        -57.1750     1.9910   -24.3070 hn         1 4ZH       0.518000
     43 H14        -57.8880     2.0330   -26.5490 ha         1 4ZH       0.139000
     44 H15        -57.6820     0.9080   -28.8050 h4         1 4ZH       0.028100
     45 H16        -53.6410    -1.2890   -29.1800 h1         1 4ZH       0.074200
     46 H17        -54.8530    -2.5800   -29.1610 h1         1 4ZH       0.074200
     47 H18        -54.2510    -4.8780   -27.9430 hc         1 4ZH       0.057200
     48 H19        -52.5750    -5.1600   -27.4430 hc         1 4ZH       0.057200
     49 H20        -53.6080    -4.0570   -26.5180 hc         1 4ZH       0.057200
     50 H21        -53.4650    -4.2630   -30.3020 hc         1 4ZH       0.057200
     51 H22        -52.2430    -3.0030   -30.5470 hc         1 4ZH       0.057200
     52 H23        -51.7890    -4.5540   -29.8150 hc         1 4ZH       0.057200
     53 H24        -52.0500    -2.7450   -25.5340 h1         1 4ZH       0.106700
     54 H25        -50.7180    -1.5450   -25.6930 h1         1 4ZH       0.106700
     55 H26        -52.3940    -1.0750   -26.1370 h1         1 4ZH       0.106700
@<TRIPOS>BOND
     1     1     2 ar  
     2     1     6 ar  
     3     1     9 1   
     4     2    12 ar  
     5     2    30 1   
     6     3     7 1   
     7     3     8 1   
     8     3    13 1   
     9     3    31 1   
    10     4     5 ar  
    11     4    12 ar  
    12     4    14 1   
    13     5     6 ar  
    14     5    32 1   
    15     6    13 1   
    16     7    33 1   
    17     7    34 1   
    18     7    35 1   
    19     8    36 1   
    20     8    37 1   
    21     8    38 1   
    22     9    11 2   
    23    10    11 1   
    24    10    39 1   
    25    10    40 1   
    26    10    41 1   
    27    11    13 1   
    28    14    15 1   
    29    14    42 1   
    30    15    16 ar  
    31    15    20 ar  
    32    16    17 ar  
    33    16    43 1   
    34    17    18 ar  
    35    17    44 1   
    36    18    19 ar  
    37    19    20 ar  
    38    19    21 1   
    39    21    22 1   
    40    22    23 1   
    41    22    45 1   
    42    22    46 1   
    43    23    24 1   
    44    23    25 1   
    45    23    26 1   
    46    24    47 1   
    47    24    48 1   
    48    24    49 1   
    49    25    50 1   
    50    25    51 1   
    51    25    52 1   
    52    26    27 2   
    53    26    28 2   
    54    26    29 1   
    55    29    53 1   
    56    29    54 1   
    57    29    55 1   
@<TRIPOS>SUBSTRUCTURE
     1 4ZH         1 TEMP              0 ****  ****    0 ROOT
