@<TRIPOS>MOLECULE
4ZI
   46    48     1     0     0
SMALL
No Charge or Current Charge


@<TRIPOS>ATOM
      1 N1          -7.8970    -9.7060     1.1960 ns         1 4ZI      -0.143000
      2 C4          -3.1890    -9.7670    -1.0100 ca         1 4ZI      -0.050000
      3 C5          -3.1820   -10.6720     0.0570 ca         1 4ZI      -0.153000
      4 C6          -4.3240   -10.8280     0.8570 ca         1 4ZI      -0.026000
      5 C7          -6.6950   -10.3170     1.5300 c          1 4ZI       0.624700
      6 C8          -9.1650    -9.6520     1.8310 ca         1 4ZI       0.018000
      7 C10        -10.6890   -10.0190     3.7100 ca         1 4ZI       0.161100
      8 C13        -10.2220    -9.0690     1.1100 ca         1 4ZI      -0.205000
      9 C15         -6.6810    -7.3840    -1.7460 c3         1 4ZI       0.260900
     10 C17         -8.6220    -6.1240    -0.6250 cc         1 4ZI       0.242300
     11 C20         -8.1050    -5.8060     0.7470 c3         1 4ZI      -0.148400
     12 C1          -5.5040   -10.0830     0.6060 ca         1 4ZI      -0.182600
     13 C11        -11.7410    -9.4370     2.9720 ca         1 4ZI      -0.226000
     14 C12        -11.5030    -8.9620     1.6720 ca         1 4ZI      -0.046000
     15 C14        -12.1280   -10.4390     5.6710 c3         1 4ZI       0.149900
     16 C16         -8.0540    -6.7790    -1.6760 cd         1 4ZI      -0.266300
     17 C18         -9.0410    -6.7850    -2.6810 cd         1 4ZI       0.309300
     18 C19         -8.9210    -7.3960    -4.0490 c3         1 4ZI      -0.138400
     19 C2          -5.5000    -9.1600    -0.4790 ca         1 4ZI       0.170100
     20 C3          -4.3410    -9.0140    -1.2750 ca         1 4ZI      -0.205000
     21 C9          -9.4100   -10.1210     3.1400 ca         1 4ZI      -0.172000
     22 N2         -10.1560    -6.1810    -2.3140 nc         1 4ZI      -0.355300
     23 O1          -6.6230    -8.4020    -0.7380 os         1 4ZI      -0.392100
     24 O2          -6.5780   -11.0260     2.5240 o          1 4ZI      -0.596100
     25 O3         -10.8600   -10.4970     4.9930 os         1 4ZI      -0.347100
     26 O4          -9.8960    -5.7430    -0.9670 os         1 4ZI      -0.092700
     27 H1          -7.8570    -9.1820     0.3330 hn         1 4ZI       0.177000
     28 H2          -2.3020    -9.6470    -1.6300 ha         1 4ZI       0.117000
     29 H3          -2.2890   -11.2560     0.2660 ha         1 4ZI       0.124000
     30 H4          -4.2850   -11.5410     1.6780 ha         1 4ZI       0.146000
     31 H5         -10.0520    -8.6970     0.1010 ha         1 4ZI       0.113000
     32 H6          -6.5060    -7.8100    -2.7430 h1         1 4ZI       0.051200
     33 H7          -5.9300    -6.6050    -1.5600 h1         1 4ZI       0.051200
     34 H8          -8.4920    -4.8410     1.0960 hc         1 4ZI       0.071367
     35 H9          -8.4140    -6.5760     1.4630 hc         1 4ZI       0.071367
     36 H10         -7.0110    -5.7550     0.7530 hc         1 4ZI       0.071367
     37 H11        -12.7400    -9.3430     3.3860 ha         1 4ZI       0.117000
     38 H12        -12.3120    -8.5110     1.1010 ha         1 4ZI       0.113000
     39 H13        -12.0430   -10.8710     6.6750 h1         1 4ZI       0.040700
     40 H14        -12.4680    -9.4000     5.7760 h1         1 4ZI       0.040700
     41 H15        -12.8910   -11.0050     5.1210 h1         1 4ZI       0.040700
     42 H16         -9.8470    -7.2810    -4.6270 hc         1 4ZI       0.062033
     43 H17         -8.1120    -6.9240    -4.6170 hc         1 4ZI       0.062033
     44 H18         -8.7040    -8.4680    -3.9770 hc         1 4ZI       0.062033
     45 H19         -4.3110    -8.3190    -2.1090 ha         1 4ZI       0.118000
     46 H20         -8.6210   -10.5610     3.7390 ha         1 4ZI       0.161000
@<TRIPOS>BOND
     1     1     5 1   
     2     1     6 1   
     3     1    27 1   
     4     2     3 ar  
     5     2    20 ar  
     6     2    28 1   
     7     3     4 ar  
     8     3    29 1   
     9     4    12 ar  
    10     4    30 1   
    11     5    12 1   
    12     5    24 2   
    13     6     8 ar  
    14     6    21 ar  
    15     7    13 ar  
    16     7    21 ar  
    17     7    25 1   
    18     8    14 ar  
    19     8    31 1   
    20     9    16 1   
    21     9    23 1   
    22     9    32 1   
    23     9    33 1   
    24    10    11 1   
    25    10    16 2   
    26    10    26 1   
    27    11    34 1   
    28    11    35 1   
    29    11    36 1   
    30    12    19 ar  
    31    13    14 ar  
    32    13    37 1   
    33    14    38 1   
    34    15    25 1   
    35    15    39 1   
    36    15    40 1   
    37    15    41 1   
    38    16    17 1   
    39    17    18 1   
    40    17    22 2   
    41    18    42 1   
    42    18    43 1   
    43    18    44 1   
    44    19    20 ar  
    45    19    23 1   
    46    20    45 1   
    47    21    46 1   
    48    22    26 1   
@<TRIPOS>SUBSTRUCTURE
     1 4ZI         1 TEMP              0 ****  ****    0 ROOT
