@<TRIPOS>MOLECULE
4ZI
   46    48     1     0     0
SMALL
abcg2


@<TRIPOS>ATOM
      1 N1          -7.9130    -9.5420     1.2350 ns         1 4ZI      -0.143000
      2 C4          -3.2330    -9.7320    -0.8590 ca         1 4ZI      -0.050000
      3 C5          -3.2680   -10.5930     0.2330 ca         1 4ZI      -0.153000
      4 C6          -4.4510   -10.7440     0.9370 ca         1 4ZI      -0.026000
      5 C7          -6.8120   -10.3040     1.4730 c          1 4ZI       0.624700
      6 C8          -9.1480    -9.5220     1.8960 ca         1 4ZI       0.018000
      7 C10        -10.6980   -10.1700     3.6280 ca         1 4ZI       0.161100
      8 C13        -10.1280    -8.6740     1.3530 ca         1 4ZI      -0.205000
      9 C15         -6.6570    -7.4200    -1.7990 c3         1 4ZI       0.260900
     10 C17         -8.4490    -5.9110    -0.7910 cc         1 4ZI       0.242300
     11 C20         -7.8450    -5.3480     0.4370 c3         1 4ZI      -0.148400
     12 C1          -5.6170   -10.0550     0.5900 ca         1 4ZI      -0.182600
     13 C11        -11.6760    -9.3320     3.0960 ca         1 4ZI      -0.226000
     14 C12        -11.3690    -8.5900     1.9550 ca         1 4ZI      -0.046000
     15 C14        -12.1430   -10.9000     5.3920 c3         1 4ZI       0.149900
     16 C16         -7.9870    -6.7670    -1.7440 cd         1 4ZI      -0.266300
     17 C18         -9.0970    -6.9570    -2.6220 cd         1 4ZI       0.309300
     18 C19         -9.1590    -7.8160    -3.8370 c3         1 4ZI      -0.138400
     19 C2          -5.5610    -9.1930    -0.5290 ca         1 4ZI       0.170100
     20 C3          -4.3720    -9.0370    -1.2400 ca         1 4ZI      -0.205000
     21 C9          -9.4360   -10.2690     3.0340 ca         1 4ZI      -0.172000
     22 N2         -10.1330    -6.2590    -2.2350 nc         1 4ZI      -0.355300
     23 O1          -6.7030    -8.5460    -0.8900 os         1 4ZI      -0.392100
     24 O2          -6.7590   -11.1480     2.3670 o          1 4ZI      -0.596100
     25 O3         -10.8760   -10.9400     4.7370 os         1 4ZI      -0.347100
     26 O4          -9.7250    -5.5870    -1.0610 os         1 4ZI      -0.092700
     27 H1          -7.8330    -8.9120     0.4470 hn         1 4ZI       0.177000
     28 H2          -2.3180    -9.5990    -1.4220 ha         1 4ZI       0.117000
     29 H3          -2.3830   -11.1380     0.5330 ha         1 4ZI       0.124000
     30 H4          -4.4980   -11.4030     1.7920 ha         1 4ZI       0.146000
     31 H5          -9.9040    -8.0950     0.4670 ha         1 4ZI       0.113000
     32 H6          -6.4310    -7.7760    -2.8040 h1         1 4ZI       0.051200
     33 H7          -5.8640    -6.7430    -1.4770 h1         1 4ZI       0.051200
     34 H8          -8.0220    -4.2730     0.4990 hc         1 4ZI       0.071367
     35 H9          -8.2860    -5.8170     1.3210 hc         1 4ZI       0.071367
     36 H10         -6.7730    -5.5360     0.4480 hc         1 4ZI       0.071367
     37 H11        -12.6530    -9.2500     3.5460 ha         1 4ZI       0.117000
     38 H12        -12.1210    -7.9350     1.5330 ha         1 4ZI       0.113000
     39 H13        -12.0660   -11.5840     6.2330 h1         1 4ZI       0.040700
     40 H14        -12.3660    -9.8940     5.7550 h1         1 4ZI       0.040700
     41 H15        -12.9410   -11.2300     4.7230 h1         1 4ZI       0.040700
     42 H16        -10.1440    -7.7560    -4.2970 hc         1 4ZI       0.062033
     43 H17         -8.4080    -7.5030    -4.5640 hc         1 4ZI       0.062033
     44 H18         -8.9530    -8.8550    -3.5760 hc         1 4ZI       0.062033
     45 H19         -4.3350    -8.3820    -2.0970 ha         1 4ZI       0.118000
     46 H20         -8.6990   -10.9250     3.4650 ha         1 4ZI       0.161000
@<TRIPOS>BOND
     1     1     5 1   
     2     1     6 1   
     3     1    27 1   
     4     2     3 ar  
     5     2    20 ar  
     6     2    28 1   
     7     3     4 ar  
     8     3    29 1   
     9     4    12 ar  
    10     4    30 1   
    11     5    12 1   
    12     5    24 2   
    13     6     8 ar  
    14     6    21 ar  
    15     7    13 ar  
    16     7    21 ar  
    17     7    25 1   
    18     8    14 ar  
    19     8    31 1   
    20     9    16 1   
    21     9    23 1   
    22     9    32 1   
    23     9    33 1   
    24    10    11 1   
    25    10    16 2   
    26    10    26 1   
    27    11    34 1   
    28    11    35 1   
    29    11    36 1   
    30    12    19 ar  
    31    13    14 ar  
    32    13    37 1   
    33    14    38 1   
    34    15    25 1   
    35    15    39 1   
    36    15    40 1   
    37    15    41 1   
    38    16    17 1   
    39    17    18 1   
    40    17    22 2   
    41    18    42 1   
    42    18    43 1   
    43    18    44 1   
    44    19    20 ar  
    45    19    23 1   
    46    20    45 1   
    47    21    46 1   
    48    22    26 1   
@<TRIPOS>SUBSTRUCTURE
     1 4ZI         1 TEMP              0 ****  ****    0 ROOT
