@<TRIPOS>MOLECULE
4ZJ
   55    58     1     0     0
SMALL
No Charge or Current Charge


@<TRIPOS>ATOM
      1 C4           3.1260     1.4750     0.9050 ca         1 4ZJ      -0.006600
      2 C5           1.7440     1.3130     1.1570 ca         1 4ZJ       0.423900
      3 C11          6.2500     0.0280    -0.3430 c3         1 4ZJ       0.095300
      4 C7           1.7940    -0.8470     0.3260 ca         1 4ZJ       0.606900
      5 C8           3.1730    -0.7680     0.0530 ca         1 4ZJ      -0.205000
      6 C9           3.8240     0.4370     0.3580 ca         1 4ZJ      -0.026200
      7 C12          6.5860    -1.2060     0.5220 c3         1 4ZJ      -0.107600
      8 C13          6.0510    -0.3200    -1.8350 c3         1 4ZJ      -0.107600
      9 N3           3.9400     2.5800     1.1370 nc         1 4ZJ      -0.558100
     10 C1           6.3600     3.0230     0.7590 c3         1 4ZJ      -0.114400
     11 C2           5.1400     2.1460     0.7040 cd         1 4ZJ       0.420800
     12 N6           1.0880     0.1590     0.8720 nb         1 4ZJ      -0.678000
     13 N10          5.1340     0.8270     0.2110 na         1 4ZJ      -0.183600
     14 N14          1.1140    -2.0210     0.0610 nu         1 4ZJ      -0.919800
     15 C15         -0.2180    -2.4090     0.0190 ca         1 4ZJ       0.429900
     16 C16         -0.5150    -3.7650    -0.1300 ca         1 4ZJ      -0.342000
     17 C17         -1.8660    -4.1280    -0.1920 ca         1 4ZJ       0.168900
     18 N18         -2.8420    -3.2070    -0.1170 nb         1 4ZJ      -0.273000
     19 C19         -2.4620    -1.9180     0.0200 ca         1 4ZJ       0.425900
     20 N20         -1.1880    -1.4850     0.0840 nb         1 4ZJ      -0.280000
     21 N21         -3.4910    -0.9330     0.0930 nh         1 4ZJ      -0.761300
     22 C22         -4.9240    -1.3170     0.3210 c6         1 4ZJ       0.220800
     23 C23         -5.9000    -0.3180    -0.3380 c6         1 4ZJ      -0.102400
     24 C24         -5.6500     1.1240     0.1500 c6         1 4ZJ       0.146300
     25 C25         -4.1730     1.5320    -0.1290 c6         1 4ZJ       0.137300
     26 C26         -3.1720     0.4970     0.4580 c6         1 4ZJ       0.191800
     27 F27         -3.9640     1.6250    -1.5270 f          1 4ZJ      -0.253000
     28 O28         -6.6110     2.0140    -0.4680 os         1 4ZJ      -0.440000
     29 C29         -6.6220     3.3850    -0.0290 c3         1 4ZJ       0.144900
     30 H1           1.1560     2.1180     1.5960 h4         1 4ZJ       0.035100
     31 H2           7.1410     0.6690    -0.3040 h1         1 4ZJ       0.061700
     32 H3           3.6970    -1.6110    -0.3800 ha         1 4ZJ       0.125000
     33 H4           5.7730    -1.9400     0.5150 hc         1 4ZJ       0.048867
     34 H5           7.4910    -1.7010     0.1490 hc         1 4ZJ       0.048867
     35 H6           6.7690    -0.9070     1.5610 hc         1 4ZJ       0.048867
     36 H7           5.2060    -1.0000    -1.9830 hc         1 4ZJ       0.048867
     37 H8           5.8650     0.5900    -2.4180 hc         1 4ZJ       0.048867
     38 H9           6.9490    -0.8030    -2.2380 hc         1 4ZJ       0.048867
     39 H10          7.1380     2.5670     1.3800 hc         1 4ZJ       0.059367
     40 H11          6.7710     3.1800    -0.2440 hc         1 4ZJ       0.059367
     41 H12          6.1260     4.0070     1.1830 hc         1 4ZJ       0.059367
     42 H13          1.7460    -2.7800    -0.1650 hn         1 4ZJ       0.500000
     43 H14          0.2650    -4.5170    -0.1930 ha         1 4ZJ       0.128000
     44 H15         -2.1730    -5.1670    -0.3040 h4         1 4ZJ       0.015100
     45 H16         -5.1510    -2.3100    -0.0920 h1         1 4ZJ       0.067200
     46 H17         -5.1290    -1.3670     1.4020 h1         1 4ZJ       0.067200
     47 H18         -5.7940    -0.3690    -1.4300 hc         1 4ZJ       0.068700
     48 H19         -6.9330    -0.6130    -0.1090 hc         1 4ZJ       0.068700
     49 H20         -5.8170     1.1510     1.2370 h1         1 4ZJ       0.031700
     50 H21         -3.9600     2.5210     0.2980 h1         1 4ZJ       0.055700
     51 H22         -3.1640     0.6030     1.5530 h1         1 4ZJ       0.080200
     52 H23         -2.1720     0.7920     0.1080 h1         1 4ZJ       0.080200
     53 H24         -7.4430     3.9300    -0.5100 h1         1 4ZJ       0.029367
     54 H25         -6.7630     3.4450     1.0580 h1         1 4ZJ       0.029367
     55 H26         -5.6840     3.8920    -0.2890 h1         1 4ZJ       0.029367
@<TRIPOS>BOND
     1     1     2 ar  
     2     1     6 ar  
     3     1     9 1   
     4     2    12 ar  
     5     2    30 1   
     6     3     7 1   
     7     3     8 1   
     8     3    13 1   
     9     3    31 1   
    10     4     5 ar  
    11     4    12 ar  
    12     4    14 1   
    13     5     6 ar  
    14     5    32 1   
    15     6    13 1   
    16     7    33 1   
    17     7    34 1   
    18     7    35 1   
    19     8    36 1   
    20     8    37 1   
    21     8    38 1   
    22     9    11 2   
    23    10    11 1   
    24    10    39 1   
    25    10    40 1   
    26    10    41 1   
    27    11    13 1   
    28    14    15 1   
    29    14    42 1   
    30    15    16 ar  
    31    15    20 ar  
    32    16    17 ar  
    33    16    43 1   
    34    17    18 ar  
    35    17    44 1   
    36    18    19 ar  
    37    19    20 ar  
    38    19    21 1   
    39    21    22 1   
    40    21    26 1   
    41    22    23 1   
    42    22    45 1   
    43    22    46 1   
    44    23    24 1   
    45    23    47 1   
    46    23    48 1   
    47    24    25 1   
    48    24    28 1   
    49    24    49 1   
    50    25    26 1   
    51    25    27 1   
    52    25    50 1   
    53    26    51 1   
    54    26    52 1   
    55    28    29 1   
    56    29    53 1   
    57    29    54 1   
    58    29    55 1   
@<TRIPOS>SUBSTRUCTURE
     1 4ZJ         1 TEMP              0 ****  ****    0 ROOT
