@<TRIPOS>MOLECULE
4ZJ
   55    58     1     0     0
SMALL
abcg2


@<TRIPOS>ATOM
      1 C4           2.8710     0.9060     1.8160 ca         1 4ZJ      -0.006600
      2 C5           1.8020     0.3920     2.5360 ca         1 4ZJ       0.423900
      3 C11          5.2020     0.6170    -0.9540 c3         1 4ZJ       0.095300
      4 C7           1.6480    -1.4000     1.1140 ca         1 4ZJ       0.606900
      5 C8           2.7040    -0.9860     0.3100 ca         1 4ZJ      -0.205000
      6 C9           3.3280     0.1920     0.6990 ca         1 4ZJ      -0.026200
      7 C12          5.9770    -0.6770    -0.7480 c3         1 4ZJ      -0.107600
      8 C13          4.3760     0.6240    -2.2330 c3         1 4ZJ      -0.107600
      9 N3           3.6220     2.0400     1.9940 nc         1 4ZJ      -0.558100
     10 C1           5.5330     3.0640     0.8180 c3         1 4ZJ      -0.114400
     11 C2           4.4970     2.0220     1.0300 cd         1 4ZJ       0.420800
     12 N6           1.2220    -0.7450     2.1950 nb         1 4ZJ      -0.678000
     13 N10          4.3720     0.9260     0.2090 na         1 4ZJ      -0.183600
     14 N14          1.0160    -2.6120     0.8050 nu         1 4ZJ      -0.919800
     15 C15         -0.3270    -2.8070     0.6770 ca         1 4ZJ       0.429900
     16 C16         -0.8100    -4.0780     0.3110 ca         1 4ZJ      -0.342000
     17 C17         -2.1740    -4.1730     0.1820 ca         1 4ZJ       0.168900
     18 N18         -3.0160    -3.1640     0.3890 nb         1 4ZJ      -0.273000
     19 C19         -2.4520    -2.0050     0.7400 ca         1 4ZJ       0.425900
     20 N20         -1.1430    -1.7920     0.8800 nb         1 4ZJ      -0.280000
     21 N21         -3.2770    -0.9580     1.0140 nh         1 4ZJ      -0.761300
     22 C22         -4.6940    -0.9960     0.7140 c6         1 4ZJ       0.220800
     23 C23         -5.0050    -0.2010    -0.5510 c6         1 4ZJ      -0.102400
     24 C24         -4.4750     1.2220    -0.4310 c6         1 4ZJ       0.146300
     25 C25         -2.9980     1.2180    -0.0530 c6         1 4ZJ       0.137300
     26 C26         -2.7610     0.3800     1.1920 c6         1 4ZJ       0.191800
     27 F27         -2.2690     0.6720    -1.1100 f          1 4ZJ      -0.253000
     28 O28         -4.7280     1.8940    -1.6380 os         1 4ZJ      -0.440000
     29 C29         -4.6470     3.2970    -1.5600 c3         1 4ZJ       0.144900
     30 H1           1.4210     0.9030     3.4140 h4         1 4ZJ       0.035100
     31 H2           5.9290     1.4270    -1.0230 h1         1 4ZJ       0.061700
     32 H3           2.9940    -1.5560    -0.5610 ha         1 4ZJ       0.125000
     33 H4           5.3270    -1.5520    -0.7170 hc         1 4ZJ       0.048867
     34 H5           6.6760    -0.8160    -1.5720 hc         1 4ZJ       0.048867
     35 H6           6.5530    -0.6450     0.1770 hc         1 4ZJ       0.048867
     36 H7           3.6470    -0.1860    -2.2600 hc         1 4ZJ       0.048867
     37 H8           3.8430     1.5680    -2.3470 hc         1 4ZJ       0.048867
     38 H9           5.0340     0.5040    -3.0930 hc         1 4ZJ       0.048867
     39 H10          6.5400     2.6490     0.8710 hc         1 4ZJ       0.059367
     40 H11          5.4270     3.5480    -0.1540 hc         1 4ZJ       0.059367
     41 H12          5.4360     3.8230     1.5900 hc         1 4ZJ       0.059367
     42 H13          1.6030    -3.3330     0.4170 hn         1 4ZJ       0.500000
     43 H14         -0.1580    -4.9210     0.1370 ha         1 4ZJ       0.128000
     44 H15         -2.6240    -5.1180    -0.1060 h4         1 4ZJ       0.015100
     45 H16         -5.0160    -2.0270     0.6080 h1         1 4ZJ       0.067200
     46 H17         -5.2370    -0.5690     1.5640 h1         1 4ZJ       0.067200
     47 H18         -4.5600    -0.6990    -1.4160 hc         1 4ZJ       0.068700
     48 H19         -6.0850    -0.1770    -0.7090 hc         1 4ZJ       0.068700
     49 H20         -5.0030     1.7210     0.3990 h1         1 4ZJ       0.031700
     50 H21         -2.6250     2.2320     0.1170 h1         1 4ZJ       0.055700
     51 H22         -3.2740     0.8570     2.0320 h1         1 4ZJ       0.080200
     52 H23         -1.7020     0.3400     1.4310 h1         1 4ZJ       0.080200
     53 H24         -4.9820     3.7000    -2.5140 h1         1 4ZJ       0.029367
     54 H25         -5.2920     3.6970    -0.7700 h1         1 4ZJ       0.029367
     55 H26         -3.6290     3.6600    -1.3810 h1         1 4ZJ       0.029367
@<TRIPOS>BOND
     1     1     2 ar  
     2     1     6 ar  
     3     1     9 1   
     4     2    12 ar  
     5     2    30 1   
     6     3     7 1   
     7     3     8 1   
     8     3    13 1   
     9     3    31 1   
    10     4     5 ar  
    11     4    12 ar  
    12     4    14 1   
    13     5     6 ar  
    14     5    32 1   
    15     6    13 1   
    16     7    33 1   
    17     7    34 1   
    18     7    35 1   
    19     8    36 1   
    20     8    37 1   
    21     8    38 1   
    22     9    11 2   
    23    10    11 1   
    24    10    39 1   
    25    10    40 1   
    26    10    41 1   
    27    11    13 1   
    28    14    15 1   
    29    14    42 1   
    30    15    16 ar  
    31    15    20 ar  
    32    16    17 ar  
    33    16    43 1   
    34    17    18 ar  
    35    17    44 1   
    36    18    19 ar  
    37    19    20 ar  
    38    19    21 1   
    39    21    22 1   
    40    21    26 1   
    41    22    23 1   
    42    22    45 1   
    43    22    46 1   
    44    23    24 1   
    45    23    47 1   
    46    23    48 1   
    47    24    25 1   
    48    24    28 1   
    49    24    49 1   
    50    25    26 1   
    51    25    27 1   
    52    25    50 1   
    53    26    51 1   
    54    26    52 1   
    55    28    29 1   
    56    29    53 1   
    57    29    54 1   
    58    29    55 1   
@<TRIPOS>SUBSTRUCTURE
     1 4ZJ         1 TEMP              0 ****  ****    0 ROOT
