@<TRIPOS>MOLECULE
4ZK
   32    33     1     0     0
SMALL
No Charge or Current Charge


@<TRIPOS>ATOM
      1 N1          -3.4930     0.0310     1.6690 n8         1 4ZK      -0.987200
      2 C4          -1.6220    -0.3420    -0.6420 ca         1 4ZK      -0.032300
      3 C5          -0.4820     0.4730    -0.5230 ca         1 4ZK      -0.090000
      4 C6          -1.4690    -1.7400    -0.6470 ca         1 4ZK      -0.106000
      5 C7          -0.1940    -2.3150    -0.5320 ca         1 4ZK       0.119000
      6 C8           0.9500    -1.4960    -0.4080 ca         1 4ZK       0.111000
      7 C10          1.9900     0.8350    -0.2640 cp         1 4ZK      -0.037000
      8 C13          4.1130     2.6160    -0.1070 ca         1 4ZK       0.243900
      9 C1          -4.8560     1.7730     0.2410 c          1 4ZK       0.725000
     10 O2          -5.8710     1.1210     0.0230 o          1 4ZK      -0.724000
     11 C2          -3.5000     0.9970     0.5110 c3         1 4ZK       0.027500
     12 C3          -3.0070     0.2870    -0.7770 c3         1 4ZK      -0.077100
     13 Cl1         -0.0580    -4.0750    -0.5590 cl         1 4ZK      -0.198000
     14 Cl2          2.5470    -2.2570    -0.3210 cl         1 4ZK      -0.196000
     15 C9           0.8160    -0.0800    -0.3940 cp         1 4ZK      -0.036000
     16 C11          2.9000     0.7330     0.8180 ca         1 4ZK      -0.089000
     17 C12          2.2160     1.8700    -1.2090 ca         1 4ZK       0.313900
     18 N2           3.2520     2.7430    -1.1440 nb         1 4ZK      -0.642000
     19 C14          3.9780     1.6290     0.8990 ca         1 4ZK       0.080100
     20 O3           4.8650     1.5330     1.9420 oh         1 4ZK      -0.528100
     21 H1          -4.2340    -0.6650     1.5210 hn         1 4ZK       0.379500
     22 H2          -2.6270    -0.5190     1.6370 hn         1 4ZK       0.379500
     23 H4          -0.6020     1.5550    -0.5190 ha         1 4ZK       0.135000
     24 H5          -2.3380    -2.3850    -0.7430 ha         1 4ZK       0.134000
     25 H6           4.9360     3.3300    -0.0790 h4         1 4ZK       0.009100
     26 H8          -2.7560     1.7700     0.7500 h1         1 4ZK       0.048700
     27 H9          -2.9890     1.0210    -1.5930 hc         1 4ZK       0.062200
     28 H10         -3.7450    -0.4680    -1.0770 hc         1 4ZK       0.062200
     29 H11          2.7650    -0.0270     1.5830 ha         1 4ZK       0.143000
     30 H12          1.5390     1.9960    -2.0530 h4         1 4ZK       0.029100
     31 H13          5.5510     2.2310     1.8470 ho         1 4ZK       0.462000
     32 O1          -4.8530     2.9950     0.3230 o          1 4ZK      -0.724000
@<TRIPOS>BOND
     1     1    11 1   
     2     1    21 1   
     3     1    22 1   
     4     2     3 ar  
     5     2     4 ar  
     6     2    12 1   
     7     3    15 ar  
     8     3    23 1   
     9     4     5 ar  
    10     4    24 1   
    11     5     6 ar  
    12     5    13 1   
    13     6    14 1   
    14     6    15 ar  
    15     7    15 1   
    16     7    16 ar  
    17     7    17 ar  
    18     8    18 ar  
    19     8    19 ar  
    20     8    25 1   
    21     9    10 1   
    22     9    11 1   
    23     9    32 1   
    24    11    12 1   
    25    11    26 1   
    26    12    27 1   
    27    12    28 1   
    28    16    19 ar  
    29    16    29 1   
    30    17    18 ar  
    31    17    30 1   
    32    19    20 1   
    33    20    31 1   
@<TRIPOS>SUBSTRUCTURE
     1 4ZK         1 TEMP              0 ****  ****    0 ROOT
