@<TRIPOS>MOLECULE
4ZK
   32    33     1     0     0
SMALL
bcc


@<TRIPOS>ATOM
      1 N1          -3.7000    -0.3010     1.5020 n8         1 4ZK      -0.876800
      2 C4          -1.5750    -0.1920    -0.6670 ca         1 4ZK      -0.032300
      3 C5          -0.4060     0.5540    -0.5480 ca         1 4ZK      -0.108000
      4 C6          -1.4770    -1.5780    -0.6260 ca         1 4ZK      -0.124000
      5 C7          -0.2430    -2.1910    -0.4760 ca         1 4ZK       0.027400
      6 C8           0.9170    -1.4340    -0.3590 ca         1 4ZK       0.019400
      7 C10          2.0360     0.8220    -0.2920 cp         1 4ZK      -0.102300
      8 C13          4.1520     2.5280    -0.2200 ca         1 4ZK       0.309200
      9 C1          -4.7940     1.6250     0.4090 c          1 4ZK       0.935600
     10 O2          -5.8610     0.9930     0.5320 o          1 4ZK      -0.829300
     11 C2          -3.4820     0.8390     0.6360 c3         1 4ZK       0.027500
     12 C3          -2.9050     0.4880    -0.7600 c3         1 4ZK      -0.077100
     13 CL1         -0.1670    -3.9130    -0.4500 cl         1 4ZK      -0.106400
     14 CL2          2.4430    -2.2210    -0.2220 cl         1 4ZK      -0.104400
     15 C9           0.8400    -0.0410    -0.3930 cp         1 4ZK      -0.036000
     16 C11          2.8450     0.8290     0.8360 ca         1 4ZK      -0.107000
     17 C12          2.3480     1.6920    -1.3340 ca         1 4ZK       0.379200
     18 N2           3.3800     2.5210    -1.2950 nb         1 4ZK      -0.642000
     19 C14          3.9270     1.6980     0.8780 ca         1 4ZK       0.014800
     20 O3           4.7040     1.7080     1.9730 oh         1 4ZK      -0.489100
     21 H1          -4.4630    -0.8540     1.1320 hn         1 4ZK       0.324300
     22 H2          -2.8830    -0.8980     1.5220 hn         1 4ZK       0.324300
     23 H4          -0.4650     1.6360    -0.5660 ha         1 4ZK       0.153000
     24 H5          -2.3650    -2.1890    -0.7270 ha         1 4ZK       0.152000
     25 H6           4.9900     3.2200    -0.2170 h4         1 4ZK       0.009100
     26 H8          -2.7650     1.5080     1.1250 h1         1 4ZK       0.048700
     27 H9          -2.8070     1.4070    -1.3410 hc         1 4ZK       0.062200
     28 H10         -3.6180    -0.1550    -1.2850 hc         1 4ZK       0.062200
     29 H11          2.6340     0.1820     1.6790 ha         1 4ZK       0.161000
     30 H12          1.7390     1.7070    -2.2310 h4         1 4ZK       0.029100
     31 H13          5.4080     2.3610     1.8860 ho         1 4ZK       0.423000
     32 O1          -4.6650     2.8190     0.0760 o          1 4ZK      -0.829300
@<TRIPOS>BOND
     1     1    11 1   
     2     1    21 1   
     3     1    22 1   
     4     2     3 ar  
     5     2     4 ar  
     6     2    12 1   
     7     3    15 ar  
     8     3    23 1   
     9     4     5 ar  
    10     4    24 1   
    11     5     6 ar  
    12     5    13 1   
    13     6    14 1   
    14     6    15 ar  
    15     7    15 1   
    16     7    16 ar  
    17     7    17 ar  
    18     8    18 ar  
    19     8    19 ar  
    20     8    25 1   
    21     9    10 1   
    22     9    11 1   
    23     9    32 1   
    24    11    12 1   
    25    11    26 1   
    26    12    27 1   
    27    12    28 1   
    28    16    19 ar  
    29    16    29 1   
    30    17    18 ar  
    31    17    30 1   
    32    19    20 1   
    33    20    31 1   
@<TRIPOS>SUBSTRUCTURE
     1 4ZK         1 TEMP              0 ****  ****    0 ROOT
