@<TRIPOS>MOLECULE
4ZL
   33    33     1     0     0
SMALL
No Charge or Current Charge


@<TRIPOS>ATOM
      1 CAA         -4.1520    -0.0800     1.1940 ca         1 4ZL      -0.095500
      2 CAB         -5.2430     0.8040     1.2810 ca         1 4ZL      -0.113000
      3 CAC         -5.7880     1.3660     0.1140 ca         1 4ZL      -0.105000
      4 CAD         -5.2420     1.0440    -1.1400 ca         1 4ZL      -0.113000
      5 CAE         -4.1510     0.1610    -1.2280 ca         1 4ZL      -0.095500
      6 CAF         -3.6020    -0.4070    -0.0610 ca         1 4ZL      -0.120300
      7 CAG         -2.4200    -1.3590    -0.1560 c3         1 4ZL       0.163300
      8 NAH         -1.1560    -0.6330    -0.0840 ns         1 4ZL      -0.520900
      9 CAI          0.0690    -1.2290    -0.1430 c          1 4ZL       0.663100
     10 OAO          0.2320    -2.4310    -0.2620 o          1 4ZL      -0.646100
     11 NAJ          1.0980    -0.3360    -0.0550 ns         1 4ZL      -0.519900
     12 CAK          2.5300    -0.7120    -0.0920 c3         1 4ZL       0.052000
     13 CAL          3.4640     0.5110     0.0290 c          1 4ZL       0.571100
     14 OAQ          3.0750     1.6680     0.1430 o          1 4ZL      -0.484000
     15 OAM          4.7840     0.1410    -0.0080 os         1 4ZL      -0.452100
     16 CAN          5.7790     1.1740     0.0940 c3         1 4ZL       0.168600
     17 CAP          7.1560     0.4950     0.0270 c3         1 4ZL      -0.098100
     18 H1          -3.7340    -0.5090     2.1020 ha         1 4ZL       0.118000
     19 H2          -5.6640     1.0530     2.2520 ha         1 4ZL       0.112500
     20 H3          -6.6320     2.0490     0.1820 ha         1 4ZL       0.112000
     21 H4          -5.6620     1.4800    -2.0440 ha         1 4ZL       0.112500
     22 H5          -3.7330    -0.0800    -2.2030 ha         1 4ZL       0.118000
     23 H6          -2.4620    -2.0890     0.6650 h1         1 4ZL       0.063700
     24 H7          -2.4620    -1.9140    -1.1030 h1         1 4ZL       0.063700
     25 H8          -1.1870     0.3720     0.0150 hn         1 4ZL       0.309500
     26 H9           0.8600     0.6440     0.0420 hn         1 4ZL       0.317500
     27 H10          2.7580    -1.3960     0.7350 h1         1 4ZL       0.087700
     28 H11          2.7580    -1.2210    -1.0370 h1         1 4ZL       0.087700
     29 H12          5.6840     1.8930    -0.7310 h1         1 4ZL       0.048700
     30 H13          5.6840     1.7180     1.0440 h1         1 4ZL       0.048700
     31 H14          7.2760    -0.2170     0.8520 hc         1 4ZL       0.047700
     32 H15          7.2760    -0.0420    -0.9210 hc         1 4ZL       0.047700
     33 H16          7.9520     1.2450     0.1010 hc         1 4ZL       0.047700
@<TRIPOS>BOND
     1     1     2 ar  
     2     1     6 ar  
     3     1    18 1   
     4     2     3 ar  
     5     2    19 1   
     6     3     4 ar  
     7     3    20 1   
     8     4     5 ar  
     9     4    21 1   
    10     5     6 ar  
    11     5    22 1   
    12     6     7 1   
    13     7     8 1   
    14     7    23 1   
    15     7    24 1   
    16     8     9 1   
    17     8    25 1   
    18     9    10 2   
    19     9    11 1   
    20    11    12 1   
    21    11    26 1   
    22    12    13 1   
    23    12    27 1   
    24    12    28 1   
    25    13    14 2   
    26    13    15 1   
    27    15    16 1   
    28    16    17 1   
    29    16    29 1   
    30    16    30 1   
    31    17    31 1   
    32    17    32 1   
    33    17    33 1   
@<TRIPOS>SUBSTRUCTURE
     1 4ZL         1 TEMP              0 ****  ****    0 ROOT
