@<TRIPOS>MOLECULE
4ZL
   33    33     1     0     0
SMALL
abcg2


@<TRIPOS>ATOM
      1 CAA         -2.8140     0.2570     0.8530 ca         1 4ZL      -0.095500
      2 CAB         -3.5570     1.2500     1.4740 ca         1 4ZL      -0.113000
      3 CAC         -4.7890     1.6310     0.9550 ca         1 4ZL      -0.105000
      4 CAD         -5.2710     1.0110    -0.1880 ca         1 4ZL      -0.113000
      5 CAE         -4.5220     0.0180    -0.8100 ca         1 4ZL      -0.095500
      6 CAF         -3.2880    -0.3700    -0.2990 ca         1 4ZL      -0.120300
      7 CAG         -2.4860    -1.4560    -0.9760 c3         1 4ZL       0.163300
      8 NAH         -1.1580    -1.0470    -1.3610 ns         1 4ZL      -0.520900
      9 CAI         -0.0520    -1.3050    -0.6190 c          1 4ZL       0.663100
     10 OAO         -0.0810    -1.9540     0.4220 o          1 4ZL      -0.646100
     11 NAJ          1.0990    -0.7860    -1.1300 ns         1 4ZL      -0.519900
     12 CAK          2.3720    -0.9700    -0.5120 c3         1 4ZL       0.052000
     13 CAL          3.0550     0.3480    -0.2150 c          1 4ZL       0.571100
     14 OAQ          2.5550     1.4320    -0.3680 o          1 4ZL      -0.484000
     15 OAM          4.2800     0.1450     0.2400 os         1 4ZL      -0.452100
     16 CAN          5.0730     1.2940     0.5870 c3         1 4ZL       0.168600
     17 CAP          6.4060     0.8000     1.0940 c3         1 4ZL      -0.098100
     18 H1          -1.8610    -0.0370     1.2760 ha         1 4ZL       0.118000
     19 H2          -3.1750     1.7260     2.3680 ha         1 4ZL       0.112500
     20 H3          -5.3680     2.4060     1.4400 ha         1 4ZL       0.112000
     21 H4          -6.2290     1.3000    -0.6010 ha         1 4ZL       0.112500
     22 H5          -4.9050    -0.4570    -1.7060 ha         1 4ZL       0.118000
     23 H6          -2.4040    -2.3250    -0.3230 h1         1 4ZL       0.063700
     24 H7          -3.0140    -1.7900    -1.8710 h1         1 4ZL       0.063700
     25 H8          -1.0840    -0.4320    -2.1550 hn         1 4ZL       0.309500
     26 H9           1.0750    -0.3050    -2.0140 hn         1 4ZL       0.317500
     27 H10          2.2380    -1.5040     0.4300 h1         1 4ZL       0.087700
     28 H11          3.0400    -1.5870    -1.1220 h1         1 4ZL       0.087700
     29 H12          5.2000     1.9280    -0.2920 h1         1 4ZL       0.048700
     30 H13          4.5570     1.8770     1.3520 h1         1 4ZL       0.048700
     31 H14          6.2930     0.1820     1.9850 hc         1 4ZL       0.047700
     32 H15          6.9380     0.2270     0.3350 hc         1 4ZL       0.047700
     33 H16          7.0240     1.6570     1.3600 hc         1 4ZL       0.047700
@<TRIPOS>BOND
     1     1     2 ar  
     2     1     6 ar  
     3     1    18 1   
     4     2     3 ar  
     5     2    19 1   
     6     3     4 ar  
     7     3    20 1   
     8     4     5 ar  
     9     4    21 1   
    10     5     6 ar  
    11     5    22 1   
    12     6     7 1   
    13     7     8 1   
    14     7    23 1   
    15     7    24 1   
    16     8     9 1   
    17     8    25 1   
    18     9    10 2   
    19     9    11 1   
    20    11    12 1   
    21    11    26 1   
    22    12    13 1   
    23    12    27 1   
    24    12    28 1   
    25    13    14 2   
    26    13    15 1   
    27    15    16 1   
    28    16    17 1   
    29    16    29 1   
    30    16    30 1   
    31    17    31 1   
    32    17    32 1   
    33    17    33 1   
@<TRIPOS>SUBSTRUCTURE
     1 4ZL         1 TEMP              0 ****  ****    0 ROOT
