@<TRIPOS>MOLECULE
4ZM
   42    43     1     0     0
SMALL
No Charge or Current Charge


@<TRIPOS>ATOM
      1 N            2.6860     0.7830     0.1390 ns         1 4ZM      -0.498900
      2 C            8.6220     0.0640    -1.1140 c3         1 4ZM      -0.097100
      3 O            6.3020     0.4290    -0.6290 os         1 4ZM      -0.449100
      4 N1           0.8590    -0.1900     1.0860 ns         1 4ZM      -0.518900
      5 C1           7.5600     0.1220    -0.0050 c3         1 4ZM       0.167600
      6 O1           5.2090     0.3920     1.3900 o          1 4ZM      -0.486000
      7 N2          -7.0770     1.9790     0.9940 nb         1 4ZM      -0.665000
      8 C2           5.1920     0.5320     0.1720 c          1 4ZM       0.571100
      9 O2           2.2660    -1.4280    -0.2160 o          1 4ZM      -0.621100
     10 C3           3.9330     0.8720    -0.6560 c3         1 4ZM       0.050000
     11 C4           1.9590    -0.3650     0.2950 c          1 4ZM       0.645100
     12 C5          -0.1080    -1.2410     1.4030 c3         1 4ZM       0.165300
     13 C6          -1.3050    -1.1960     0.4640 ca         1 4ZM      -0.100300
     14 C7          -2.4430    -0.4350     0.7980 ca         1 4ZM      -0.083000
     15 C8          -3.5720    -0.3770    -0.0580 cp         1 4ZM      -0.045000
     16 C11         -1.2830    -1.9120    -0.7460 ca         1 4ZM      -0.091000
     17 C10         -2.3880    -1.8700    -1.6100 ca         1 4ZM      -0.108000
     18 C9          -3.5210    -1.1120    -1.2700 ca         1 4ZM      -0.093000
     19 C12         -4.7780     0.4340     0.3040 cp         1 4ZM       0.010000
     20 C16         -6.0850     0.0440    -0.0750 ca         1 4ZM      -0.157500
     21 C15         -7.1900     0.8320     0.2860 ca         1 4ZM       0.332900
     22 C14         -5.8350     2.3660     1.3640 ca         1 4ZM       0.332900
     23 C13         -4.6790     1.6350     1.0460 ca         1 4ZM      -0.157500
     24 H1           2.3560     1.6110     0.6180 hn         1 4ZM       0.308500
     25 H2           8.3730    -0.7130    -1.8470 hc         1 4ZM       0.046700
     26 H3           8.6920     1.0270    -1.6330 hc         1 4ZM       0.046700
     27 H4           9.6050    -0.1690    -0.6870 hc         1 4ZM       0.046700
     28 H5           0.6940     0.7370     1.4560 hn         1 4ZM       0.310500
     29 H6           7.5170    -0.8470     0.5110 h1         1 4ZM       0.049700
     30 H7           7.8360     0.8950     0.7250 h1         1 4ZM       0.049700
     31 H8           3.8890     0.1820    -1.5080 h1         1 4ZM       0.084700
     32 H9           4.0520     1.8900    -1.0470 h1         1 4ZM       0.084700
     33 H10          0.3770    -2.2240     1.3420 h1         1 4ZM       0.062700
     34 H11         -0.4460    -1.1060     2.4390 h1         1 4ZM       0.062700
     35 H12         -2.4550     0.1070     1.7410 ha         1 4ZM       0.111000
     36 H13         -0.4080    -2.4990    -1.0180 ha         1 4ZM       0.114000
     37 H14         -2.3660    -2.4230    -2.5470 ha         1 4ZM       0.116000
     38 H15         -4.3590    -1.0840    -1.9610 ha         1 4ZM       0.116000
     39 H16         -6.2530    -0.8720    -0.6330 ha         1 4ZM       0.125500
     40 H17         -8.1990     0.5360     0.0020 h4         1 4ZM       0.017600
     41 H18         -5.7650     3.2940     1.9300 h4         1 4ZM       0.017600
     42 H19         -3.7130     2.0150     1.3640 ha         1 4ZM       0.125500
@<TRIPOS>BOND
     1     1    10 1   
     2     1    11 1   
     3     1    24 1   
     4     2     5 1   
     5     2    25 1   
     6     2    26 1   
     7     2    27 1   
     8     3     5 1   
     9     3     8 1   
    10     4    11 1   
    11     4    12 1   
    12     4    28 1   
    13     5    29 1   
    14     5    30 1   
    15     6     8 2   
    16     7    21 ar  
    17     7    22 ar  
    18     8    10 1   
    19     9    11 2   
    20    10    31 1   
    21    10    32 1   
    22    12    13 1   
    23    12    33 1   
    24    12    34 1   
    25    13    14 ar  
    26    13    16 ar  
    27    14    15 ar  
    28    14    35 1   
    29    15    18 ar  
    30    15    19 1   
    31    16    17 ar  
    32    16    36 1   
    33    17    18 ar  
    34    17    37 1   
    35    18    38 1   
    36    19    20 ar  
    37    19    23 ar  
    38    20    21 ar  
    39    20    39 1   
    40    21    40 1   
    41    22    23 ar  
    42    22    41 1   
    43    23    42 1   
@<TRIPOS>SUBSTRUCTURE
     1 4ZM         1 TEMP              0 ****  ****    0 ROOT
