@<TRIPOS>MOLECULE
4ZM
   42    43     1     0     0
SMALL
bcc


@<TRIPOS>ATOM
      1 N            2.0470     0.6830     1.4610 ns         1 4ZM      -0.565900
      2 C            7.0940     1.3040    -1.6790 c3         1 4ZM      -0.097100
      3 O            5.1050     1.1040    -0.3840 os         1 4ZM      -0.425900
      4 N1           0.7580    -1.1740     1.8740 ns         1 4ZM      -0.585900
      5 C1           6.3840     0.4940    -0.6220 c3         1 4ZM       0.144400
      6 O1           4.6090    -0.3900     1.2040 o          1 4ZM      -0.535000
      7 N2          -4.9510     3.1050    -0.2200 nb         1 4ZM      -0.665000
      8 C2           4.3240     0.5740     0.5420 c          1 4ZM       0.620100
      9 O2           1.6980    -0.8580    -0.1630 o          1 4ZM      -0.621100
     10 C3           3.0360     1.3640     0.6840 c3         1 4ZM       0.050000
     11 C4           1.5150    -0.4800     0.9870 c          1 4ZM       0.779100
     12 C5           0.0400    -2.3530     1.4740 c3         1 4ZM       0.165300
     13 C6          -1.1590    -2.1040     0.5860 ca         1 4ZM      -0.100300
     14 C7          -1.8200    -0.8840     0.5740 ca         1 4ZM      -0.101000
     15 C8          -2.9530    -0.6820    -0.2140 cp         1 4ZM      -0.045000
     16 C11         -1.6420    -3.1380    -0.2130 ca         1 4ZM      -0.109000
     17 C10         -2.7680    -2.9510    -1.0000 ca         1 4ZM      -0.126000
     18 C9          -3.4260    -1.7310    -1.0020 ca         1 4ZM      -0.111000
     19 C12         -3.6400     0.6230    -0.2150 cp         1 4ZM       0.010000
     20 C16         -5.0270     0.7150    -0.3210 ca         1 4ZM      -0.240800
     21 C15         -5.6250     1.9650    -0.3170 ca         1 4ZM       0.398200
     22 C14         -3.6300     3.0190    -0.1220 ca         1 4ZM       0.398200
     23 C13         -2.9350     1.8210    -0.1140 ca         1 4ZM      -0.240800
     24 H1           2.0540     0.8480     2.4540 hn         1 4ZM       0.308500
     25 H2           6.5250     1.3410    -2.6080 hc         1 4ZM       0.046700
     26 H3           7.2820     2.3230    -1.3430 hc         1 4ZM       0.046700
     27 H4           8.0560     0.8410    -1.8950 hc         1 4ZM       0.046700
     28 H5           0.5480    -0.7740     2.7740 hn         1 4ZM       0.310500
     29 H6           6.2390    -0.5370    -0.9500 h1         1 4ZM       0.049700
     30 H7           6.9610     0.4740     0.3050 h1         1 4ZM       0.049700
     31 H8           2.6540     1.6190    -0.3060 h1         1 4ZM       0.084700
     32 H9           3.2710     2.3090     1.1770 h1         1 4ZM       0.084700
     33 H10          0.7170    -3.0480     0.9730 h1         1 4ZM       0.062700
     34 H11         -0.2900    -2.8530     2.3850 h1         1 4ZM       0.062700
     35 H12         -1.4570    -0.0780     1.2020 ha         1 4ZM       0.129000
     36 H13         -1.1320    -4.0940    -0.2210 ha         1 4ZM       0.132000
     37 H14         -3.1290    -3.7570    -1.6260 ha         1 4ZM       0.134000
     38 H15         -4.2920    -1.5900    -1.6360 ha         1 4ZM       0.134000
     39 H16         -5.6450    -0.1700    -0.3870 ha         1 4ZM       0.143500
     40 H17         -6.7040     2.0440    -0.3920 h4         1 4ZM       0.017600
     41 H18         -3.0860     3.9550    -0.0490 h4         1 4ZM       0.017600
     42 H19         -1.8550     1.8330    -0.0490 ha         1 4ZM       0.143500
@<TRIPOS>BOND
     1     1    10 1   
     2     1    11 1   
     3     1    24 1   
     4     2     5 1   
     5     2    25 1   
     6     2    26 1   
     7     2    27 1   
     8     3     5 1   
     9     3     8 1   
    10     4    11 1   
    11     4    12 1   
    12     4    28 1   
    13     5    29 1   
    14     5    30 1   
    15     6     8 2   
    16     7    21 ar  
    17     7    22 ar  
    18     8    10 1   
    19     9    11 2   
    20    10    31 1   
    21    10    32 1   
    22    12    13 1   
    23    12    33 1   
    24    12    34 1   
    25    13    14 ar  
    26    13    16 ar  
    27    14    15 ar  
    28    14    35 1   
    29    15    18 ar  
    30    15    19 1   
    31    16    17 ar  
    32    16    36 1   
    33    17    18 ar  
    34    17    37 1   
    35    18    38 1   
    36    19    20 ar  
    37    19    23 ar  
    38    20    21 ar  
    39    20    39 1   
    40    21    40 1   
    41    22    23 ar  
    42    22    41 1   
    43    23    42 1   
@<TRIPOS>SUBSTRUCTURE
     1 4ZM         1 TEMP              0 ****  ****    0 ROOT
