@<TRIPOS>MOLECULE
4ZN
   40    40     1     0     0
SMALL
No Charge or Current Charge


@<TRIPOS>ATOM
      1 N12         -1.5970     2.4570     0.4710 n8         1 4ZN      -0.978200
      2 C13         -3.0800     0.4730     0.3460 ca         1 4ZN      -0.030300
      3 C15         -5.0880     0.2030    -1.0220 ca         1 4ZN      -0.123500
      4 C17         -5.0960    -0.5300     1.2970 ca         1 4ZN      -0.123500
      5 C02          5.4620     1.6730     1.1780 c3         1 4ZN      -0.079600
      6 C04          4.2060     2.2850    -0.9470 c3         1 4ZN      -0.079600
      7 C05          3.8190    -0.0140     0.1900 c3         1 4ZN      -0.045400
      8 C06          2.4750    -0.3630    -0.5220 c3         1 4ZN      -0.152700
      9 P08         -0.4370    -0.1720    -0.5230 p5         1 4ZN       1.394000
     10 O09         -0.7900    -1.6200    -0.3630 o          1 4ZN      -0.811500
     11 O10         -0.4200     0.2660    -1.9580 o          1 4ZN      -0.811500
     12 C11         -1.6310     0.9340     0.5020 c3         1 4ZN      -0.141200
     13 C14         -3.7540     0.6270    -0.8830 ca         1 4ZN      -0.097500
     14 C16         -5.7580    -0.3760     0.0680 ca         1 4ZN      -0.156000
     15 C18         -3.7620    -0.1060     1.4360 ca         1 4ZN      -0.097500
     16 C19          2.4100    -1.8940    -0.8190 c          1 4ZN       0.730000
     17 O20          2.3970    -2.2540    -1.9880 o          1 4ZN      -0.750500
     18 O21          2.4350    -2.6790     0.1190 o          1 4ZN      -0.750500
     19 H1          -1.8850     2.7920    -0.4570 hn         1 4ZN       0.377000
     20 H2          -2.3160     2.8330     1.1020 hn         1 4ZN       0.377000
     21 H4          -5.6000     0.3240    -1.9730 ha         1 4ZN       0.082000
     22 H5          -5.6150    -0.9760     2.1420 ha         1 4ZN       0.082000
     23 H6           6.3120     1.2560     0.6240 hc         1 4ZN       0.015533
     24 H7           5.6630     2.7340     1.3680 hc         1 4ZN       0.015533
     25 H8           5.4010     1.1630     2.1470 hc         1 4ZN       0.015533
     26 H9           3.3550     1.9440     0.9960 hc         1 4ZN       0.042700
     27 H10          3.2280     2.3040    -1.4410 hc         1 4ZN       0.015533
     28 H11          4.5030     3.3250    -0.7680 hc         1 4ZN       0.015533
     29 H12          4.9340     1.8360    -1.6350 hc         1 4ZN       0.015533
     30 H13          4.6370    -0.4720    -0.3800 hc         1 4ZN       0.023200
     31 H14          3.8260    -0.5000     1.1740 hc         1 4ZN       0.023200
     32 H15          2.4790     0.1340    -1.4990 hc         1 4ZN       0.043700
     33 H16          1.1870    -0.2540     1.2610 hc         1 4ZN       0.032700
     34 H17          1.2670     1.2570     0.3510 hc         1 4ZN       0.032700
     35 H19         -1.3060     0.6470     1.5110 h1         1 4ZN       0.063700
     36 H20         -3.2450     1.0750    -1.7330 ha         1 4ZN       0.115000
     37 H21         -6.7900    -0.7040    -0.0390 ha         1 4ZN       0.076000
     38 H22         -3.2600    -0.2300     2.3930 ha         1 4ZN       0.115000
     39 C07          1.2150     0.1690     0.2510 c3         1 4ZN      -0.409400
     40 C03          4.1470     1.4970     0.3840 c3         1 4ZN      -0.064700
@<TRIPOS>BOND
     1     1    12 1   
     2     1    19 1   
     3     1    20 1   
     4     2    12 1   
     5     2    13 ar  
     6     2    15 ar  
     7     3    13 ar  
     8     3    14 ar  
     9     3    21 1   
    10     4    14 ar  
    11     4    15 ar  
    12     4    22 1   
    13     5    23 1   
    14     5    24 1   
    15     5    25 1   
    16     5    40 1   
    17     6    27 1   
    18     6    28 1   
    19     6    29 1   
    20     6    40 1   
    21     7     8 1   
    22     7    30 1   
    23     7    31 1   
    24     7    40 1   
    25     8    16 1   
    26     8    32 1   
    27     8    39 1   
    28     9    10 1   
    29     9    11 1   
    30     9    12 1   
    31     9    39 1   
    32    12    35 1   
    33    13    36 1   
    34    14    37 1   
    35    15    38 1   
    36    16    17 1   
    37    16    18 1   
    38    26    40 1   
    39    33    39 1   
    40    34    39 1   
@<TRIPOS>SUBSTRUCTURE
     1 4ZN         1 TEMP              0 ****  ****    0 ROOT
