@<TRIPOS>MOLECULE
4ZN
   40    40     1     0     0
SMALL
bcc


@<TRIPOS>ATOM
      1 N12         -1.1990     2.2450     0.7210 n8         1 4ZN      -0.867800
      2 C13         -2.9760     0.4940     0.4150 ca         1 4ZN      -0.030300
      3 C15         -4.9290     0.8480    -0.9720 ca         1 4ZN      -0.141500
      4 C17         -4.9090    -0.9540     0.6100 ca         1 4ZN      -0.141500
      5 C02          5.3730     1.8750     0.6730 c3         1 4ZN      -0.079600
      6 C04          3.6810     2.1190    -1.1620 c3         1 4ZN      -0.079600
      7 C05          3.7370     0.0240     0.2700 c3         1 4ZN      -0.045400
      8 C06          2.3730    -0.4820    -0.2190 c3         1 4ZN      -0.152700
      9 P08         -0.4030    -0.1710    -0.2300 p5         1 4ZN       1.078400
     10 O09         -0.8010    -1.6250    -0.1020 o          1 4ZN      -0.811500
     11 O10         -0.3960     0.4740    -1.6050 o          1 4ZN      -0.811500
     12 C11         -1.5700     0.8450     0.8240 c3         1 4ZN       0.016600
     13 C14         -3.6450     1.2050    -0.5790 ca         1 4ZN      -0.115500
     14 C16         -5.5680    -0.2340    -0.3810 ca         1 4ZN      -0.174000
     15 C18         -3.6260    -0.5950     0.9960 ca         1 4ZN      -0.115500
     16 C19          2.3740    -2.0220    -0.1590 c          1 4ZN       0.940600
     17 O20          2.4270    -2.6390    -1.2450 o          1 4ZN      -0.855800
     18 O21          2.3840    -2.5410     0.9770 o          1 4ZN      -0.855800
     19 H1          -1.0620     2.4910    -0.2510 hn         1 4ZN       0.321800
     20 H2          -1.9400     2.8390     1.0740 hn         1 4ZN       0.321800
     21 H4          -5.4330     1.4170    -1.7430 ha         1 4ZN       0.100000
     22 H5          -5.3980    -1.7970     1.0820 ha         1 4ZN       0.100000
     23 H6           6.1130     1.4450    -0.0070 hc         1 4ZN       0.015533
     24 H7           5.5380     2.9540     0.7020 hc         1 4ZN       0.015533
     25 H8           5.5760     1.4830     1.6710 hc         1 4ZN       0.015533
     26 H9           3.2670     2.0120     0.9290 hc         1 4ZN       0.042700
     27 H10          2.6410     1.9850    -1.4660 hc         1 4ZN       0.015533
     28 H11          3.8930     3.1900    -1.1880 hc         1 4ZN       0.015533
     29 H12          4.3080     1.6410    -1.9190 hc         1 4ZN       0.015533
     30 H13          4.5200    -0.4510    -0.3350 hc         1 4ZN       0.023200
     31 H14          3.8940    -0.3220     1.2970 hc         1 4ZN       0.023200
     32 H15          2.2580    -0.1870    -1.2660 hc         1 4ZN       0.043700
     33 H16          1.2100    -0.2760     1.5900 hc         1 4ZN       0.032700
     34 H17          1.3330     1.2080     0.6610 hc         1 4ZN       0.032700
     35 H19         -1.4260     0.5160     1.8600 h1         1 4ZN       0.063700
     36 H20         -3.1680     2.0580    -1.0450 ha         1 4ZN       0.133000
     37 H21         -6.5700    -0.5090    -0.6830 ha         1 4ZN       0.094000
     38 H22         -3.1230    -1.1620     1.7700 ha         1 4ZN       0.133000
     39 C07          1.2160     0.1250     0.5730 c3         1 4ZN      -0.251600
     40 C03          3.9550     1.5380     0.2210 c3         1 4ZN      -0.064700
@<TRIPOS>BOND
     1     1    12 1   
     2     1    19 1   
     3     1    20 1   
     4     2    12 1   
     5     2    13 ar  
     6     2    15 ar  
     7     3    13 ar  
     8     3    14 ar  
     9     3    21 1   
    10     4    14 ar  
    11     4    15 ar  
    12     4    22 1   
    13     5    23 1   
    14     5    24 1   
    15     5    25 1   
    16     5    40 1   
    17     6    27 1   
    18     6    28 1   
    19     6    29 1   
    20     6    40 1   
    21     7     8 1   
    22     7    30 1   
    23     7    31 1   
    24     7    40 1   
    25     8    16 1   
    26     8    32 1   
    27     8    39 1   
    28     9    10 1   
    29     9    11 1   
    30     9    12 1   
    31     9    39 1   
    32    12    35 1   
    33    13    36 1   
    34    14    37 1   
    35    15    38 1   
    36    16    17 1   
    37    16    18 1   
    38    26    40 1   
    39    33    39 1   
    40    34    39 1   
@<TRIPOS>SUBSTRUCTURE
     1 4ZN         1 TEMP              0 ****  ****    0 ROOT
