@<TRIPOS>MOLECULE
4ZO
   40    40     1     0     0
SMALL
abcg2


@<TRIPOS>ATOM
      1 C3           6.4270    -1.2780    -0.4930 c          1 4ZO       0.609100
      2 C5           7.6890    -1.8780     0.0740 c3         1 4ZO      -0.182100
      3 CAA          2.5620     0.8490    -0.9830 ca         1 4ZO      -0.065500
      4 CAB          3.7770     0.1790    -0.9450 ca         1 4ZO      -0.156500
      5 CAC          4.3450    -0.1500     0.2870 ca         1 4ZO      -0.008000
      6 CAD          3.6650     0.2080     1.4550 ca         1 4ZO      -0.156500
      7 CAE          2.4560     0.8760     1.3960 ca         1 4ZO      -0.065500
      8 CAF          1.8840     1.2140     0.1730 ca         1 4ZO      -0.148300
      9 CAG          0.5580     1.9180     0.1010 c3         1 4ZO       0.177300
     10 NAH         -0.5170     0.9460     0.1190 ns         1 4ZO      -0.529900
     11 CAI         -1.8110     1.3210    -0.0190 c          1 4ZO       0.655100
     12 OAO         -2.1460     2.4970    -0.1370 o          1 4ZO      -0.651100
     13 NAJ         -2.7140     0.3070    -0.0270 ns         1 4ZO      -0.528900
     14 CAK         -4.1200     0.5800    -0.0900 c3         1 4ZO       0.060000
     15 CAL         -4.9040    -0.7050     0.0180 c          1 4ZO       0.583100
     16 OAQ         -4.4140    -1.7930     0.1920 o          1 4ZO      -0.500000
     17 OAM         -6.1970    -0.4740    -0.0950 os         1 4ZO      -0.444100
     18 CAN         -7.1010    -1.5890     0.0060 c3         1 4ZO       0.168600
     19 CAP         -8.5030    -1.0600    -0.1710 c3         1 4ZO      -0.098100
     20 N2           5.5640    -0.8110     0.4480 ns         1 4ZO      -0.149000
     21 O4           6.2300    -1.2040    -1.6930 o          1 4ZO      -0.577100
     22 H1           8.4950    -1.1460    -0.0030 hc         1 4ZO       0.064367
     23 H2           7.6020    -2.1720     1.1180 hc         1 4ZO       0.064367
     24 H3           7.9780    -2.7470    -0.5130 hc         1 4ZO       0.064367
     25 H5           4.2680    -0.0740    -1.8690 ha         1 4ZO       0.130500
     26 H6           4.0920    -0.0350     2.4220 ha         1 4ZO       0.130500
     27 H7           1.9580     1.1420     2.3210 ha         1 4ZO       0.118000
     28 H8           0.4590     2.6090     0.9430 h1         1 4ZO       0.055700
     29 H9           0.5130     2.5200    -0.8100 h1         1 4ZO       0.055700
     30 H10         -0.2750    -0.0300     0.1670 hn         1 4ZO       0.317500
     31 H11         -2.4280    -0.6360     0.1830 hn         1 4ZO       0.331500
     32 H12         -4.4510     1.2470     0.7140 h1         1 4ZO       0.080700
     33 H13         -4.3950     1.0710    -1.0290 h1         1 4ZO       0.080700
     34 H14         -6.8620    -2.3250    -0.7640 h1         1 4ZO       0.050200
     35 H15         -6.9820    -2.0670     0.9800 h1         1 4ZO       0.050200
     36 H16         -8.7560    -0.3260     0.5940 hc         1 4ZO       0.048700
     37 H17         -8.6380    -0.6030    -1.1510 hc         1 4ZO       0.048700
     38 H18         -9.2070    -1.8860    -0.0870 hc         1 4ZO       0.048700
     39 H19          5.8470    -0.9430     1.4060 hn         1 4ZO       0.149000
     40 H4           2.1400     1.0970    -1.9500 ha         1 4ZO       0.118000
@<TRIPOS>BOND
     1     1     2 1   
     2     1    20 1   
     3     1    21 2   
     4     2    22 1   
     5     2    23 1   
     6     2    24 1   
     7     3     4 ar  
     8     3     8 ar  
     9     3    40 1   
    10     4     5 ar  
    11     4    25 1   
    12     5     6 ar  
    13     5    20 1   
    14     6     7 ar  
    15     6    26 1   
    16     7     8 ar  
    17     7    27 1   
    18     8     9 1   
    19     9    10 1   
    20     9    28 1   
    21     9    29 1   
    22    10    11 1   
    23    10    30 1   
    24    11    12 2   
    25    11    13 1   
    26    13    14 1   
    27    13    31 1   
    28    14    15 1   
    29    14    32 1   
    30    14    33 1   
    31    15    16 2   
    32    15    17 1   
    33    17    18 1   
    34    18    19 1   
    35    18    34 1   
    36    18    35 1   
    37    19    36 1   
    38    19    37 1   
    39    19    38 1   
    40    20    39 1   
@<TRIPOS>SUBSTRUCTURE
     1 4ZO         1 TEMP              0 ****  ****    0 ROOT
