@<TRIPOS>MOLECULE
4ZO
   40    40     1     0     0
SMALL
No Charge or Current Charge


@<TRIPOS>ATOM
      1 C3           6.4780    -1.3900    -0.5000 c          1 4ZO       0.609100
      2 C5           7.6780    -2.0830     0.1380 c3         1 4ZO      -0.182100
      3 CAA          2.5740     0.8780    -1.0590 ca         1 4ZO      -0.065500
      4 CAB          3.7860     0.1680    -0.9870 ca         1 4ZO      -0.156500
      5 CAC          4.3660    -0.1340     0.2650 ca         1 4ZO      -0.008000
      6 CAD          3.7080     0.2880     1.4350 ca         1 4ZO      -0.156500
      7 CAE          2.4970     0.9980     1.3650 ca         1 4ZO      -0.065500
      8 CAF          1.9240     1.2980     0.1160 ca         1 4ZO      -0.148300
      9 CAG          0.6130     2.0620     0.0370 c3         1 4ZO       0.177300
     10 NAH         -0.5230     1.1480     0.0460 ns         1 4ZO      -0.529900
     11 CAI         -1.8250     1.5490    -0.0120 c          1 4ZO       0.655100
     12 OAO         -2.1690     2.7160    -0.0780 o          1 4ZO      -0.651100
     13 NAJ         -2.7040     0.5060     0.0110 ns         1 4ZO      -0.528900
     14 CAK         -4.1760     0.6600    -0.0400 c3         1 4ZO       0.060000
     15 CAL         -4.9130    -0.6970     0.0020 c          1 4ZO       0.583100
     16 OAQ         -4.3520    -1.7860     0.0710 o          1 4ZO      -0.500000
     17 OAM         -6.2730    -0.5330    -0.0470 os         1 4ZO      -0.444100
     18 CAN         -7.0980    -1.7100    -0.0160 c3         1 4ZO       0.168600
     19 CAP         -8.5620    -1.2480    -0.0830 c3         1 4ZO      -0.098100
     20 N2           5.5870    -0.8470     0.4180 ns         1 4ZO      -0.149000
     21 O4           6.3470    -1.3360    -1.7170 o          1 4ZO      -0.577100
     22 H1           8.1840    -1.3770     0.8070 hc         1 4ZO       0.064367
     23 H2           7.3190    -2.8480     0.8360 hc         1 4ZO       0.064367
     24 H3           8.3670    -2.5030    -0.6030 hc         1 4ZO       0.064367
     25 H5           4.2540    -0.1380    -1.9170 ha         1 4ZO       0.130500
     26 H6           4.1360     0.0650     2.4100 ha         1 4ZO       0.130500
     27 H7           2.0040     1.3130     2.2820 ha         1 4ZO       0.118000
     28 H8           0.5270     2.7480     0.8900 h1         1 4ZO       0.055700
     29 H9           0.5830     2.6600    -0.8840 h1         1 4ZO       0.055700
     30 H10         -0.3370     0.1560     0.0990 hn         1 4ZO       0.317500
     31 H11         -2.3190    -0.4290     0.0680 hn         1 4ZO       0.331500
     32 H12         -4.5180     1.2590     0.8130 h1         1 4ZO       0.080700
     33 H13         -4.4650     1.1740    -0.9650 h1         1 4ZO       0.080700
     34 H14         -6.8810    -2.3640    -0.8720 h1         1 4ZO       0.050200
     35 H15         -6.9350    -2.2790     0.9090 h1         1 4ZO       0.050200
     36 H16         -8.8040    -0.6050     0.7710 hc         1 4ZO       0.048700
     37 H17         -8.7490    -0.6900    -1.0080 hc         1 4ZO       0.048700
     38 H18         -9.2340    -2.1140    -0.0620 hc         1 4ZO       0.048700
     39 H19          5.8580    -0.9860     1.3820 hn         1 4ZO       0.149000
     40 H4           2.1390     1.1000    -2.0310 ha         1 4ZO       0.118000
@<TRIPOS>BOND
     1     1     2 1   
     2     1    20 1   
     3     1    21 2   
     4     2    22 1   
     5     2    23 1   
     6     2    24 1   
     7     3     4 ar  
     8     3     8 ar  
     9     3    40 1   
    10     4     5 ar  
    11     4    25 1   
    12     5     6 ar  
    13     5    20 1   
    14     6     7 ar  
    15     6    26 1   
    16     7     8 ar  
    17     7    27 1   
    18     8     9 1   
    19     9    10 1   
    20     9    28 1   
    21     9    29 1   
    22    10    11 1   
    23    10    30 1   
    24    11    12 2   
    25    11    13 1   
    26    13    14 1   
    27    13    31 1   
    28    14    15 1   
    29    14    32 1   
    30    14    33 1   
    31    15    16 2   
    32    15    17 1   
    33    17    18 1   
    34    18    19 1   
    35    18    34 1   
    36    18    35 1   
    37    19    36 1   
    38    19    37 1   
    39    19    38 1   
    40    20    39 1   
@<TRIPOS>SUBSTRUCTURE
     1 4ZO         1 TEMP              0 ****  ****    0 ROOT
