@<TRIPOS>MOLECULE
4ZP
   42    43     1     0     0
SMALL
No Charge or Current Charge


@<TRIPOS>ATOM
      1 C1           0.3590     2.2960     0.9530 c3         1 4ZP       0.161300
      2 C2           1.6450     1.8490    -1.1900 ca         1 4ZP      -0.101000
      3 C3           2.7030     1.2470    -1.8890 ca         1 4ZP      -0.106000
      4 C4           3.6270     0.4370    -1.2080 ca         1 4ZP      -0.099000
      5 C5           3.5120     0.2090     0.1860 cp         1 4ZP      -0.030000
      6 C6           2.4340     0.8270     0.8710 ca         1 4ZP      -0.087000
      7 C7           1.5060     1.6430     0.1940 ca         1 4ZP      -0.101300
      8 C8           4.4940    -0.6580     0.9130 cp         1 4ZP      -0.084000
      9 C9           4.1070    -1.4460     2.0300 ca         1 4ZP       0.345900
     10 C11          6.2410    -2.3010     2.3250 ca         1 4ZP       0.334900
     11 N10          4.9500    -2.2500     2.7240 nb         1 4ZP      -0.666000
     12 C12          6.7300    -1.5630     1.2360 ca         1 4ZP      -0.165000
     13 C13          5.8530    -0.7330     0.5180 ca         1 4ZP      -0.067000
     14 N14         -0.8370     1.4520     0.9410 ns         1 4ZP      -0.516900
     15 C15         -1.8790     1.6020     0.0700 c          1 4ZP       0.650100
     16 N16         -2.8580     0.6690     0.2540 ns         1 4ZP      -0.528900
     17 C17         -4.0990     0.5980    -0.5530 c3         1 4ZP       0.058000
     18 C18         -5.0170    -0.5660    -0.1230 c          1 4ZP       0.584100
     19 O19         -1.9370     2.4720    -0.7800 o          1 4ZP      -0.633100
     20 O20         -4.7610    -1.3500     0.7860 o          1 4ZP      -0.499000
     21 O21         -6.1580    -0.6150    -0.8840 os         1 4ZP      -0.443100
     22 C22         -7.1150    -1.6500    -0.6010 c3         1 4ZP       0.168600
     23 C23         -8.2820    -1.4780    -1.5850 c3         1 4ZP      -0.098100
     24 H1           0.6560     2.4680     1.9960 h1         1 4ZP       0.064700
     25 H2           0.1300     3.2750     0.5130 h1         1 4ZP       0.064700
     26 H4           2.8050     1.4060    -2.9600 ha         1 4ZP       0.115000
     27 H5           4.4290    -0.0300    -1.7730 ha         1 4ZP       0.114000
     28 H6           2.3230     0.6830     1.9430 ha         1 4ZP       0.113000
     29 H7           3.0740    -1.4440     2.3750 h4         1 4ZP       0.025100
     30 H8           6.9020    -2.9510     2.8970 h4         1 4ZP       0.018100
     31 H9           7.7780    -1.6360     0.9570 ha         1 4ZP       0.123000
     32 H10          6.2260    -0.1480    -0.3190 ha         1 4ZP       0.120000
     33 H11         -0.8900     0.6910     1.6040 hn         1 4ZP       0.309500
     34 H12         -2.7220    -0.0170     0.9870 hn         1 4ZP       0.332500
     35 H13         -4.6640     1.5320    -0.4510 h1         1 4ZP       0.082200
     36 H14         -3.8470     0.4580    -1.6120 h1         1 4ZP       0.082200
     37 H15         -6.6690    -2.6450    -0.7320 h1         1 4ZP       0.050700
     38 H16         -7.4890    -1.5680     0.4290 h1         1 4ZP       0.050700
     39 H17         -8.7520    -0.4950    -1.4600 hc         1 4ZP       0.049033
     40 H18         -7.9320    -1.5710    -2.6200 hc         1 4ZP       0.049033
     41 H19         -9.0430    -2.2470    -1.4100 hc         1 4ZP       0.049033
     42 H3           0.9310     2.4720    -1.7240 ha         1 4ZP       0.112000
@<TRIPOS>BOND
     1     1     7 1   
     2     1    14 1   
     3     1    24 1   
     4     1    25 1   
     5     2     3 ar  
     6     2     7 ar  
     7     2    42 1   
     8     3     4 ar  
     9     3    26 1   
    10     4     5 ar  
    11     4    27 1   
    12     5     6 ar  
    13     5     8 1   
    14     6     7 ar  
    15     6    28 1   
    16     8     9 ar  
    17     8    13 ar  
    18     9    11 ar  
    19     9    29 1   
    20    10    11 ar  
    21    10    12 ar  
    22    10    30 1   
    23    12    13 ar  
    24    12    31 1   
    25    13    32 1   
    26    14    15 1   
    27    14    33 1   
    28    15    16 1   
    29    15    19 2   
    30    16    17 1   
    31    16    34 1   
    32    17    18 1   
    33    17    35 1   
    34    17    36 1   
    35    18    20 2   
    36    18    21 1   
    37    21    22 1   
    38    22    23 1   
    39    22    37 1   
    40    22    38 1   
    41    23    39 1   
    42    23    40 1   
    43    23    41 1   
@<TRIPOS>SUBSTRUCTURE
     1 4ZP         1 TEMP              0 ****  ****    0 ROOT
