@<TRIPOS>MOLECULE
4ZP
   42    43     1     0     0
SMALL
bcc


@<TRIPOS>ATOM
      1 C1           0.3470     3.4220     0.3290 c3         1 4ZP       0.161300
      2 C2           2.6970     3.3730    -0.5380 ca         1 4ZP      -0.119000
      3 C3           3.8870     2.7230    -0.8250 ca         1 4ZP      -0.124000
      4 C4           4.0220     1.3650    -0.5730 ca         1 4ZP      -0.117000
      5 C5           2.9620     0.6490    -0.0200 cp         1 4ZP      -0.030000
      6 C6           1.7730     1.3200     0.2720 ca         1 4ZP      -0.105000
      7 C7           1.6250     2.6750     0.0130 ca         1 4ZP      -0.101300
      8 C8           3.0900    -0.7950     0.2460 cp         1 4ZP      -0.149300
      9 C9           2.0220    -1.6670     0.0260 ca         1 4ZP       0.411200
     10 C11          3.2080    -3.4870     0.7010 ca         1 4ZP       0.400200
     11 N10          2.0710    -2.9730     0.2460 nb         1 4ZP      -0.666000
     12 C12          4.3370    -2.7200     0.9460 ca         1 4ZP      -0.248300
     13 C13          4.2740    -1.3560     0.7170 ca         1 4ZP      -0.085000
     14 N14         -0.7580     2.6080     0.7520 ns         1 4ZP      -0.583900
     15 C15         -1.4630     1.8560    -0.1380 c          1 4ZP       0.784100
     16 N16         -2.3650     1.0090     0.4170 ns         1 4ZP      -0.595900
     17 C17         -3.2300     0.2130    -0.4040 c3         1 4ZP       0.058000
     18 C18         -4.1050    -0.6620     0.4600 c          1 4ZP       0.633100
     19 O19         -1.3010     1.9400    -1.3500 o          1 4ZP      -0.633100
     20 O20         -4.1050    -0.6510     1.6660 o          1 4ZP      -0.548000
     21 O21         -4.8720    -1.4340    -0.2830 os         1 4ZP      -0.419900
     22 C22         -5.7820    -2.3300     0.3820 c3         1 4ZP       0.145400
     23 C23         -6.5400    -3.0870    -0.6800 c3         1 4ZP      -0.098100
     24 H1           0.5420     4.1440     1.1250 h1         1 4ZP       0.064700
     25 H2           0.0550     4.0090    -0.5430 h1         1 4ZP       0.064700
     26 H4           4.7120     3.2730    -1.2600 ha         1 4ZP       0.133000
     27 H5           4.9460     0.8620    -0.8270 ha         1 4ZP       0.132000
     28 H6           0.9600     0.7740     0.7340 ha         1 4ZP       0.131000
     29 H7           1.0860    -1.2850    -0.3690 h4         1 4ZP       0.025100
     30 H8           3.2220    -4.5570     0.8760 h4         1 4ZP       0.018100
     31 H9           5.2410    -3.1820     1.3170 ha         1 4ZP       0.141000
     32 H10          5.1350    -0.7310     0.9190 ha         1 4ZP       0.138000
     33 H11         -0.8310     2.4020     1.7340 hn         1 4ZP       0.309500
     34 H12         -2.5460     1.0300     1.4090 hn         1 4ZP       0.332500
     35 H13         -3.8830     0.8240    -1.0380 h1         1 4ZP       0.082200
     36 H14         -2.6590    -0.4310    -1.0780 h1         1 4ZP       0.082200
     37 H15         -5.2200    -3.0110     1.0220 h1         1 4ZP       0.050700
     38 H16         -6.4630    -1.7550     1.0130 h1         1 4ZP       0.050700
     39 H17         -7.1180    -2.4170    -1.3160 hc         1 4ZP       0.049033
     40 H18         -5.8710    -3.6760    -1.3080 hc         1 4ZP       0.049033
     41 H19         -7.2360    -3.7730    -0.1980 hc         1 4ZP       0.049033
     42 H3           2.5990     4.4330    -0.7460 ha         1 4ZP       0.130000
@<TRIPOS>BOND
     1     1     7 1   
     2     1    14 1   
     3     1    24 1   
     4     1    25 1   
     5     2     3 ar  
     6     2     7 ar  
     7     2    42 1   
     8     3     4 ar  
     9     3    26 1   
    10     4     5 ar  
    11     4    27 1   
    12     5     6 ar  
    13     5     8 1   
    14     6     7 ar  
    15     6    28 1   
    16     8     9 ar  
    17     8    13 ar  
    18     9    11 ar  
    19     9    29 1   
    20    10    11 ar  
    21    10    12 ar  
    22    10    30 1   
    23    12    13 ar  
    24    12    31 1   
    25    13    32 1   
    26    14    15 1   
    27    14    33 1   
    28    15    16 1   
    29    15    19 2   
    30    16    17 1   
    31    16    34 1   
    32    17    18 1   
    33    17    35 1   
    34    17    36 1   
    35    18    20 2   
    36    18    21 1   
    37    21    22 1   
    38    22    23 1   
    39    22    37 1   
    40    22    38 1   
    41    23    39 1   
    42    23    40 1   
    43    23    41 1   
@<TRIPOS>SUBSTRUCTURE
     1 4ZP         1 TEMP              0 ****  ****    0 ROOT
