@<TRIPOS>MOLECULE
4ZQ
   59    62     1     0     0
SMALL
abcg2


@<TRIPOS>ATOM
      1 C14          5.2980    -1.0490    -0.3640 c3         1 4ZQ       0.288000
      2 C5           1.7110     1.4400    -0.3480 ca         1 4ZQ      -0.014600
      3 C6           0.3900     1.3670    -0.7690 ca         1 4ZQ       0.434900
      4 C8           0.4220    -0.9160    -0.6080 ca         1 4ZQ       0.620900
      5 C9           1.7410    -0.9710    -0.1650 ca         1 4ZQ      -0.215000
      6 C10          2.3910     0.2500    -0.0600 ca         1 4ZQ      -0.016200
      7 C12          4.7460    -0.1850     0.7700 c3         1 4ZQ       0.032300
      8 C13          4.3980    -0.9900     2.0140 c3         1 4ZQ      -0.110100
      9 C3           3.6580     2.0320     0.2450 cc         1 4ZQ       0.417800
     10 C1           5.7820     3.0040    -0.6340 c3         1 4ZQ      -0.136100
     11 C2           4.8570     2.8780     0.5730 c3         1 4ZQ       0.169000
     12 N4           2.5280     2.5230    -0.1480 nd         1 4ZQ      -0.504100
     13 N7          -0.2260     0.2090    -0.9120 nb         1 4ZQ      -0.677000
     14 N11          3.6540     0.6490     0.3130 na         1 4ZQ      -0.197600
     15 F15          5.4360    -0.3530    -1.4960 f          1 4ZQ      -0.108000
     16 F16          6.5020    -1.5240    -0.0300 f          1 4ZQ      -0.108000
     17 F17          4.5300    -2.1060    -0.6490 f          1 4ZQ      -0.108000
     18 C19         -1.5500    -2.4100    -0.5260 ca         1 4ZQ       0.429900
     19 C20         -2.0780    -3.6560    -0.9100 ca         1 4ZQ      -0.338000
     20 C21         -3.3890    -3.8730    -0.5630 ca         1 4ZQ       0.168900
     21 N22         -4.1470    -2.9860     0.0760 nb         1 4ZQ      -0.270000
     22 C23         -3.5470    -1.8360     0.3930 ca         1 4ZQ       0.425900
     23 N24         -2.2760    -1.5270     0.1290 nb         1 4ZQ      -0.278000
     24 N25         -4.2670    -0.9140     1.0870 nh         1 4ZQ      -0.763300
     25 C26         -5.6690    -1.1090     1.3970 c6         1 4ZQ       0.222800
     26 C27         -6.5610    -0.2980     0.4620 c6         1 4ZQ      -0.101400
     27 C28         -6.1630     1.1710     0.5090 c6         1 4ZQ       0.146300
     28 C29         -4.6740     1.3300     0.2280 c6         1 4ZQ       0.137300
     29 C30         -3.8440     0.4660     1.1630 c6         1 4ZQ       0.191800
     30 F31         -4.4260     0.9290    -1.0860 f          1 4ZQ      -0.249000
     31 O32         -6.9700     1.8850    -0.3920 os         1 4ZQ      -0.438000
     32 C33         -6.9920     3.2760    -0.1830 c3         1 4ZQ       0.144900
     33 O34          4.3600     4.1240     0.9850 oh         1 4ZQ      -0.624000
     34 H1          -0.1680     2.2650    -1.0120 h4         1 4ZQ       0.040100
     35 H2           2.1880    -1.9220     0.0790 ha         1 4ZQ       0.132000
     36 H3           5.5660     0.4830     1.0340 h1         1 4ZQ       0.090700
     37 H4           5.2680    -1.5440     2.3650 hc         1 4ZQ       0.064033
     38 H5           4.1050    -0.3030     2.8050 hc         1 4ZQ       0.064033
     39 H6           3.5860    -1.6960     1.8580 hc         1 4ZQ       0.064033
     40 H7           6.6330     3.6400    -0.3850 hc         1 4ZQ       0.053033
     41 H8           6.1790     2.0390    -0.9440 hc         1 4ZQ       0.053033
     42 H9           5.2520     3.4440    -1.4790 hc         1 4ZQ       0.053033
     43 H10          5.4180     2.4070     1.3920 h1         1 4ZQ       0.026700
     44 H11          0.3270    -2.9100    -1.0730 hn         1 4ZQ       0.505000
     45 H12         -1.4980    -4.3940    -1.4460 ha         1 4ZQ       0.130000
     46 H13         -3.8670    -4.8120    -0.8220 h4         1 4ZQ       0.016100
     47 H14         -5.9130    -2.1650     1.3480 h1         1 4ZQ       0.064700
     48 H15         -5.8320    -0.7800     2.4290 h1         1 4ZQ       0.064700
     49 H16         -6.4770    -0.6820    -0.5580 hc         1 4ZQ       0.070200
     50 H17         -7.6030    -0.4070     0.7680 hc         1 4ZQ       0.070200
     51 H18         -6.3240     1.5410     1.5360 h1         1 4ZQ       0.030700
     52 H19         -4.3560     2.3730     0.3200 h1         1 4ZQ       0.056700
     53 H20         -3.9730     0.8330     2.1860 h1         1 4ZQ       0.078700
     54 H21         -2.7900     0.5450     0.9110 h1         1 4ZQ       0.078700
     55 H22         -7.2610     3.5280     0.8490 h1         1 4ZQ       0.029700
     56 H23         -6.0350     3.7590    -0.4090 h1         1 4ZQ       0.029700
     57 H24         -7.7450     3.6970    -0.8480 h1         1 4ZQ       0.029700
     58 H25          5.1150     4.6780     1.2100 ho         1 4ZQ       0.447000
     59 N18         -0.2470    -2.1250    -0.8090 nu         1 4ZQ      -0.921800
@<TRIPOS>BOND
     1     1     7 1   
     2     1    15 1   
     3     1    16 1   
     4     1    17 1   
     5     2     3 ar  
     6     2     6 ar  
     7     2    12 1   
     8     3    13 ar  
     9     3    34 1   
    10     4     5 ar  
    11     4    13 ar  
    12     4    59 1   
    13     5     6 ar  
    14     5    35 1   
    15     6    14 1   
    16     7     8 1   
    17     7    14 1   
    18     7    36 1   
    19     8    37 1   
    20     8    38 1   
    21     8    39 1   
    22     9    11 1   
    23     9    12 2   
    24     9    14 1   
    25    10    11 1   
    26    10    40 1   
    27    10    41 1   
    28    10    42 1   
    29    11    33 1   
    30    11    43 1   
    31    18    19 ar  
    32    18    23 ar  
    33    18    59 1   
    34    19    20 ar  
    35    19    45 1   
    36    20    21 ar  
    37    20    46 1   
    38    21    22 ar  
    39    22    23 ar  
    40    22    24 1   
    41    24    25 1   
    42    24    29 1   
    43    25    26 1   
    44    25    47 1   
    45    25    48 1   
    46    26    27 1   
    47    26    49 1   
    48    26    50 1   
    49    27    28 1   
    50    27    31 1   
    51    27    51 1   
    52    28    29 1   
    53    28    30 1   
    54    28    52 1   
    55    29    53 1   
    56    29    54 1   
    57    31    32 1   
    58    32    55 1   
    59    32    56 1   
    60    32    57 1   
    61    33    58 1   
    62    44    59 1   
@<TRIPOS>SUBSTRUCTURE
     1 4ZQ         1 TEMP              0 ****  ****    0 ROOT
