@<TRIPOS>MOLECULE
4ZQ
   59    62     1     0     0
SMALL
No Charge or Current Charge


@<TRIPOS>ATOM
      1 C14          5.4320    -1.1680    -0.6870 c3         1 4ZQ       0.288000
      2 C5           1.9920     1.4690    -0.0100 ca         1 4ZQ      -0.014600
      3 C6           0.6010     1.4180    -0.2450 ca         1 4ZQ       0.434900
      4 C8           0.6020    -0.8840     0.0050 ca         1 4ZQ       0.620900
      5 C9           1.9900    -0.9140     0.2390 ca         1 4ZQ      -0.215000
      6 C10          2.6740     0.3110     0.2190 ca         1 4ZQ      -0.016200
      7 C12          5.1150    -0.3080     0.5760 c3         1 4ZQ       0.032300
      8 C13          5.0110    -1.1240     1.8910 c3         1 4ZQ      -0.110100
      9 C3           4.0540     2.0630     0.3110 cc         1 4ZQ       0.417800
     10 C1           6.1080     3.0400    -0.8540 c3         1 4ZQ      -0.136100
     11 C2           5.3330     2.8950     0.4710 c3         1 4ZQ       0.169000
     12 N4           2.8340     2.5800     0.0370 nd         1 4ZQ      -0.504100
     13 N7          -0.0850     0.2460    -0.2420 nb         1 4ZQ      -0.677000
     14 N11          3.9890     0.6570     0.4060 na         1 4ZQ      -0.197600
     15 F15          5.4030    -0.4130    -1.8100 f          1 4ZQ      -0.108000
     16 F16          6.6690    -1.7080    -0.5940 f          1 4ZQ      -0.108000
     17 F17          4.5580    -2.1850    -0.8540 f          1 4ZQ      -0.108000
     18 C19         -1.4520    -2.4230    -0.0350 ca         1 4ZQ       0.429900
     19 C20         -1.7850    -3.7690    -0.1890 ca         1 4ZQ      -0.338000
     20 C21         -3.1450    -4.1040    -0.1950 ca         1 4ZQ       0.168900
     21 N22         -4.0960    -3.1660    -0.0510 nb         1 4ZQ      -0.270000
     22 C23         -3.6830    -1.8890     0.1020 ca         1 4ZQ       0.425900
     23 N24         -2.3980    -1.4840     0.1170 nb         1 4ZQ      -0.278000
     24 N25         -4.6860    -0.8880     0.2510 nh         1 4ZQ      -0.763300
     25 C26         -6.0870    -1.2420     0.6560 c6         1 4ZQ       0.222800
     26 C27         -7.1220    -0.2630     0.0590 c6         1 4ZQ      -0.101400
     27 C28         -6.8070     1.1970     0.4460 c6         1 4ZQ       0.146300
     28 C29         -5.3670     1.5720    -0.0110 c6         1 4ZQ       0.137300
     29 C30         -4.3160     0.5520     0.5110 c6         1 4ZQ       0.191800
     30 F31         -5.3120     1.5970    -1.4270 f          1 4ZQ      -0.249000
     31 O32         -7.8230     2.0700    -0.1070 os         1 4ZQ      -0.438000
     32 C33         -7.7750     3.4600     0.2650 c3         1 4ZQ       0.144900
     33 O34          5.0860     4.2160     0.9930 oh         1 4ZQ      -0.624000
     34 H1           0.0280     2.3250    -0.4340 h4         1 4ZQ       0.040100
     35 H2           2.4870    -1.8550     0.4330 ha         1 4ZQ       0.132000
     36 H3           6.0170     0.3000     0.7090 h1         1 4ZQ       0.090700
     37 H4           5.9330    -1.6920     2.0660 hc         1 4ZQ       0.064033
     38 H5           4.8640    -0.4540     2.7460 hc         1 4ZQ       0.064033
     39 H6           4.1800    -1.8360     1.8710 hc         1 4ZQ       0.064033
     40 H7           7.0350     3.6080    -0.7070 hc         1 4ZQ       0.053033
     41 H8           6.3780     2.0550    -1.2520 hc         1 4ZQ       0.053033
     42 H9           5.4990     3.5570    -1.6050 hc         1 4ZQ       0.053033
     43 H10          5.9850     2.3670     1.1790 h1         1 4ZQ       0.026700
     44 H11          0.5030    -2.8750     0.0150 hn         1 4ZQ       0.505000
     45 H12         -1.0250    -4.5360    -0.3050 ha         1 4ZQ       0.130000
     46 H13         -3.4780    -5.1340    -0.3140 h4         1 4ZQ       0.016100
     47 H14         -6.3660    -2.2520     0.3240 h1         1 4ZQ       0.064700
     48 H15         -6.1710    -1.2330     1.7540 h1         1 4ZQ       0.064700
     49 H16         -7.1360    -0.3680    -1.0340 hc         1 4ZQ       0.070200
     50 H17         -8.1250    -0.5330     0.4140 hc         1 4ZQ       0.070200
     51 H18         -6.8540     1.2780     1.5420 h1         1 4ZQ       0.030700
     52 H19         -5.1000     2.5770     0.3420 h1         1 4ZQ       0.056700
     53 H20         -4.1840     0.7090     1.5920 h1         1 4ZQ       0.078700
     54 H21         -3.3590     0.8130     0.0370 h1         1 4ZQ       0.078700
     55 H22         -7.7960     3.5730     1.3560 h1         1 4ZQ       0.029700
     56 H23         -6.8670     3.9410    -0.1200 h1         1 4ZQ       0.029700
     57 H24         -8.6390     3.9930    -0.1500 h1         1 4ZQ       0.029700
     58 H25          5.9600     4.6510     1.1080 ho         1 4ZQ       0.447000
     59 N18         -0.1100    -2.0680    -0.0070 nu         1 4ZQ      -0.921800
@<TRIPOS>BOND
     1     1     7 1   
     2     1    15 1   
     3     1    16 1   
     4     1    17 1   
     5     2     3 ar  
     6     2     6 ar  
     7     2    12 1   
     8     3    13 ar  
     9     3    34 1   
    10     4     5 ar  
    11     4    13 ar  
    12     4    59 1   
    13     5     6 ar  
    14     5    35 1   
    15     6    14 1   
    16     7     8 1   
    17     7    14 1   
    18     7    36 1   
    19     8    37 1   
    20     8    38 1   
    21     8    39 1   
    22     9    11 1   
    23     9    12 2   
    24     9    14 1   
    25    10    11 1   
    26    10    40 1   
    27    10    41 1   
    28    10    42 1   
    29    11    33 1   
    30    11    43 1   
    31    18    19 ar  
    32    18    23 ar  
    33    18    59 1   
    34    19    20 ar  
    35    19    45 1   
    36    20    21 ar  
    37    20    46 1   
    38    21    22 ar  
    39    22    23 ar  
    40    22    24 1   
    41    24    25 1   
    42    24    29 1   
    43    25    26 1   
    44    25    47 1   
    45    25    48 1   
    46    26    27 1   
    47    26    49 1   
    48    26    50 1   
    49    27    28 1   
    50    27    31 1   
    51    27    51 1   
    52    28    29 1   
    53    28    30 1   
    54    28    52 1   
    55    29    53 1   
    56    29    54 1   
    57    31    32 1   
    58    32    55 1   
    59    32    56 1   
    60    32    57 1   
    61    33    58 1   
    62    44    59 1   
@<TRIPOS>SUBSTRUCTURE
     1 4ZQ         1 TEMP              0 ****  ****    0 ROOT
