@<TRIPOS>MOLECULE
4ZR
   59    62     1     0     0
SMALL
bcc


@<TRIPOS>ATOM
      1 C14          5.3560    -1.0520    -0.3910 c3         1 4ZR       0.652900
      2 C5           1.8130     1.4950    -0.3740 ca         1 4ZR      -0.078900
      3 C6           0.4870     1.4370    -0.7820 ca         1 4ZR       0.500200
      4 C8           0.4830    -0.8430    -0.5820 ca         1 4ZR       0.685200
      5 C9           1.8050    -0.9120    -0.1530 ca         1 4ZR      -0.298300
      6 C10          2.4770     0.3000    -0.0740 ca         1 4ZR      -0.016200
      7 C12          4.8340    -0.1630     0.7370 c3         1 4ZR       0.002000
      8 C13          4.4880    -0.9450     1.9970 c3         1 4ZR      -0.109100
      9 C3           3.7740     2.0650     0.1950 cc         1 4ZR       0.417800
     10 C1           5.9010     3.0010    -0.7140 c3         1 4ZR      -0.136100
     11 C2           4.9880     2.8960     0.5040 c3         1 4ZR       0.145800
     12 N4           2.6480     2.5690    -0.1950 nd         1 4ZR      -0.503100
     13 N7          -0.1490     0.2870    -0.9000 nb         1 4ZR      -0.678000
     14 N11          3.7480     0.6830     0.2820 na         1 4ZR      -0.167300
     15 F15          4.5640    -2.0960    -0.6550 f          1 4ZR      -0.229300
     16 F16          5.4940    -0.3720    -1.5330 f          1 4ZR      -0.229300
     17 F17          6.5530    -1.5460    -0.0650 f          1 4ZR      -0.229300
     18 C19         -1.4990    -2.3160    -0.4030 ca         1 4ZR       0.756200
     19 C20         -2.0370    -3.5800    -0.7010 ca         1 4ZR      -0.487600
     20 C21         -3.3320    -3.7810    -0.2880 ca         1 4ZR       0.499200
     21 N22         -4.0660    -2.8650     0.3350 nb         1 4ZR      -0.790000
     22 C23         -3.4620    -1.6950     0.5580 ca         1 4ZR       0.950900
     23 N24         -2.2060    -1.3950     0.2240 nb         1 4ZR      -0.807000
     24 N25         -4.1590    -0.7360     1.2260 nh         1 4ZR      -0.761300
     25 C26         -3.6720     0.6260     1.3330 c6         1 4ZR       0.218800
     26 C27         -4.3850     1.5400     0.3400 c6         1 4ZR      -0.102400
     27 C28         -5.8940     1.4450     0.5120 c6         1 4ZR       0.124100
     28 C29         -6.3550    -0.0070     0.4540 c6         1 4ZR       0.118600
     29 C30         -5.5820    -0.8540     1.4490 c6         1 4ZR       0.194800
     30 F31         -6.1250    -0.4980    -0.8320 f          1 4ZR      -0.231300
     31 O32         -6.5050     2.2540    -0.4600 os         1 4ZR      -0.391600
     32 C33         -7.8510     2.5720    -0.1980 c3         1 4ZR       0.121700
     33 O34          4.5130     4.1520     0.9120 oh         1 4ZR      -0.560800
     34 H1          -0.0580     2.3400    -1.0350 h4         1 4ZR       0.041100
     35 H2           2.2390    -1.8660     0.1030 ha         1 4ZR       0.150000
     36 H3           5.6680     0.4950     0.9800 h1         1 4ZR       0.090700
     37 H4           5.3510    -1.5110     2.3420 hc         1 4ZR       0.064033
     38 H5           4.2210    -0.2410     2.7830 hc         1 4ZR       0.064033
     39 H6           3.6590    -1.6350     1.8620 hc         1 4ZR       0.064033
     40 H7           6.7650     3.6240    -0.4780 hc         1 4ZR       0.053033
     41 H8           6.2790     2.0280    -1.0240 hc         1 4ZR       0.053033
     42 H9           5.3690     3.4440    -1.5550 hc         1 4ZR       0.053033
     43 H10          5.5520     2.4230     1.3190 h1         1 4ZR       0.026700
     44 H11          0.3540    -2.8450    -0.9960 hn         1 4ZR       0.448800
     45 H12         -1.4750    -4.3450    -1.2170 ha         1 4ZR       0.148000
     46 H13         -3.8140    -4.7360    -0.4730 h4         1 4ZR       0.017100
     47 H14         -3.8570     0.9730     2.3560 h1         1 4ZR       0.069200
     48 H15         -2.6000     0.6450     1.1630 h1         1 4ZR       0.069200
     49 H16         -4.0610     2.5700     0.5010 hc         1 4ZR       0.072200
     50 H17         -4.0990     1.2630    -0.6780 hc         1 4ZR       0.072200
     51 H18         -6.1540     1.8060     1.5220 h1         1 4ZR       0.029700
     52 H19         -7.4270    -0.0960     0.6550 h1         1 4ZR       0.055700
     53 H20         -5.8870    -1.8950     1.3880 h1         1 4ZR       0.074700
     54 H21         -5.8160    -0.5000     2.4580 h1         1 4ZR       0.074700
     55 H22         -8.5170     1.7060    -0.2710 h1         1 4ZR       0.029367
     56 H23         -7.9770     3.0120     0.7980 h1         1 4ZR       0.029367
     57 H24         -8.1680     3.3040    -0.9390 h1         1 4ZR       0.029367
     58 H25          5.2780     4.6960     1.1260 ho         1 4ZR       0.408000
     59 N18         -0.2080    -2.0450    -0.7500 nu         1 4ZR      -0.865600
@<TRIPOS>BOND
     1     1     7 1   
     2     1    15 1   
     3     1    16 1   
     4     1    17 1   
     5     2     3 ar  
     6     2     6 ar  
     7     2    12 1   
     8     3    13 ar  
     9     3    34 1   
    10     4     5 ar  
    11     4    13 ar  
    12     4    59 1   
    13     5     6 ar  
    14     5    35 1   
    15     6    14 1   
    16     7     8 1   
    17     7    14 1   
    18     7    36 1   
    19     8    37 1   
    20     8    38 1   
    21     8    39 1   
    22     9    11 1   
    23     9    12 2   
    24     9    14 1   
    25    10    11 1   
    26    10    40 1   
    27    10    41 1   
    28    10    42 1   
    29    11    33 1   
    30    11    43 1   
    31    18    19 ar  
    32    18    23 ar  
    33    18    59 1   
    34    19    20 ar  
    35    19    45 1   
    36    20    21 ar  
    37    20    46 1   
    38    21    22 ar  
    39    22    23 ar  
    40    22    24 1   
    41    24    25 1   
    42    24    29 1   
    43    25    26 1   
    44    25    47 1   
    45    25    48 1   
    46    26    27 1   
    47    26    49 1   
    48    26    50 1   
    49    27    28 1   
    50    27    31 1   
    51    27    51 1   
    52    28    29 1   
    53    28    30 1   
    54    28    52 1   
    55    29    53 1   
    56    29    54 1   
    57    31    32 1   
    58    32    55 1   
    59    32    56 1   
    60    32    57 1   
    61    33    58 1   
    62    44    59 1   
@<TRIPOS>SUBSTRUCTURE
     1 4ZR         1 TEMP              0 ****  ****    0 ROOT
