@<TRIPOS>MOLECULE
4ZR
   59    62     1     0     0
SMALL
No Charge or Current Charge


@<TRIPOS>ATOM
      1 C14          5.5400    -1.2110    -0.6430 c3         1 4ZR       0.289000
      2 C5           2.1710     1.5350    -0.0460 ca         1 4ZR      -0.013600
      3 C6           0.7790     1.5150    -0.2830 ca         1 4ZR       0.434900
      4 C8           0.7180    -0.7780     0.0270 ca         1 4ZR       0.619900
      5 C9           2.1030    -0.8400     0.2660 ca         1 4ZR      -0.215000
      6 C10          2.8200     0.3650     0.2150 ca         1 4ZR      -0.016200
      7 C12          5.2430    -0.3100     0.5970 c3         1 4ZR       0.031300
      8 C13          5.1140    -1.0880     1.9320 c3         1 4ZR      -0.109100
      9 C3           4.2470     2.0810     0.2660 cc         1 4ZR       0.417800
     10 C1           6.3300     2.9710    -0.9180 c3         1 4ZR      -0.136100
     11 C2           5.5490     2.8820     0.4080 c3         1 4ZR       0.169000
     12 N4           3.0430     2.6240    -0.0250 nd         1 4ZR      -0.503100
     13 N7           0.0620     0.3630    -0.2520 nb         1 4ZR      -0.678000
     14 N11          4.1440     0.6810     0.3980 na         1 4ZR      -0.196600
     15 F15          4.6390    -2.2080    -0.7850 f          1 4ZR      -0.108000
     16 F16          5.5340    -0.4860    -1.7850 f          1 4ZR      -0.108000
     17 F17          6.7610    -1.7820    -0.5310 f          1 4ZR      -0.108000
     18 C19         -1.3780    -2.2600     0.0290 ca         1 4ZR       0.427900
     19 C20         -1.7490    -3.5990    -0.1030 ca         1 4ZR      -0.339000
     20 C21         -3.1170    -3.8960    -0.0930 ca         1 4ZR       0.170900
     21 N22         -4.0410    -2.9290     0.0440 nb         1 4ZR      -0.264000
     22 C23         -3.5920    -1.6630     0.1750 ca         1 4ZR       0.424900
     23 N24         -2.2960    -1.2930     0.1750 nb         1 4ZR      -0.281000
     24 N25         -4.5680    -0.6330     0.3190 nh         1 4ZR      -0.761300
     25 C26         -4.1690     0.7820     0.6250 c6         1 4ZR       0.218800
     26 C27         -5.1590     1.8030     0.0220 c6         1 4ZR      -0.102400
     27 C28         -6.6030     1.5390     0.4970 c6         1 4ZR       0.147300
     28 C29         -7.0250     0.0840     0.1380 c6         1 4ZR       0.137300
     29 C30         -5.9990    -0.9570     0.6700 c6         1 4ZR       0.194800
     30 F31         -7.1200    -0.0470    -1.2700 f          1 4ZR      -0.250000
     31 O32         -7.4840     2.5410    -0.0670 os         1 4ZR      -0.438000
     32 C33         -8.8540     2.5410     0.3740 c3         1 4ZR       0.144900
     33 O34          5.3360     4.2230     0.8950 oh         1 4ZR      -0.623000
     34 H1           0.2320     2.4320    -0.4990 h4         1 4ZR       0.041100
     35 H2           2.5740    -1.7880     0.4860 ha         1 4ZR       0.132000
     36 H3           6.1610     0.2760     0.7160 h1         1 4ZR       0.090700
     37 H4           6.0200    -1.6760     2.1250 hc         1 4ZR       0.064033
     38 H5           4.9830    -0.3920     2.7690 hc         1 4ZR       0.064033
     39 H6           4.2640    -1.7770     1.9280 hc         1 4ZR       0.064033
     40 H7           7.2710     3.5170    -0.7830 hc         1 4ZR       0.053033
     41 H8           6.5740     1.9690    -1.2890 hc         1 4ZR       0.053033
     42 H9           5.7370     3.4840    -1.6850 hc         1 4ZR       0.053033
     43 H10          6.1840     2.3560     1.1320 h1         1 4ZR       0.026700
     44 H11          0.5640    -2.7660     0.0800 hn         1 4ZR       0.504000
     45 H12         -1.0120    -4.3880    -0.2130 ha         1 4ZR       0.130000
     46 H13         -3.4800    -4.9180    -0.1950 h4         1 4ZR       0.017100
     47 H14         -4.1130     0.9280     1.7140 h1         1 4ZR       0.069200
     48 H15         -3.1750     1.0210     0.2190 h1         1 4ZR       0.069200
     49 H16         -4.8540     2.8180     0.3070 hc         1 4ZR       0.072200
     50 H17         -5.1100     1.7570    -1.0740 hc         1 4ZR       0.072200
     51 H18         -6.6280     1.6470     1.5920 h1         1 4ZR       0.029700
     52 H19         -8.0160    -0.1430     0.5530 h1         1 4ZR       0.055700
     53 H20         -6.3040    -1.9350     0.2710 h1         1 4ZR       0.074700
     54 H21         -6.1030    -1.0200     1.7630 h1         1 4ZR       0.074700
     55 H22         -9.3710     1.6230     0.0630 h1         1 4ZR       0.029367
     56 H23         -8.9130     2.6230     1.4670 h1         1 4ZR       0.029367
     57 H24         -9.3920     3.3920    -0.0610 h1         1 4ZR       0.029367
     58 H25          6.2200     4.6370     1.0000 ho         1 4ZR       0.447000
     59 N18         -0.0270    -1.9430     0.0420 nu         1 4ZR      -0.920800
@<TRIPOS>BOND
     1     1     7 1   
     2     1    15 1   
     3     1    16 1   
     4     1    17 1   
     5     2     3 ar  
     6     2     6 ar  
     7     2    12 1   
     8     3    13 ar  
     9     3    34 1   
    10     4     5 ar  
    11     4    13 ar  
    12     4    59 1   
    13     5     6 ar  
    14     5    35 1   
    15     6    14 1   
    16     7     8 1   
    17     7    14 1   
    18     7    36 1   
    19     8    37 1   
    20     8    38 1   
    21     8    39 1   
    22     9    11 1   
    23     9    12 2   
    24     9    14 1   
    25    10    11 1   
    26    10    40 1   
    27    10    41 1   
    28    10    42 1   
    29    11    33 1   
    30    11    43 1   
    31    18    19 ar  
    32    18    23 ar  
    33    18    59 1   
    34    19    20 ar  
    35    19    45 1   
    36    20    21 ar  
    37    20    46 1   
    38    21    22 ar  
    39    22    23 ar  
    40    22    24 1   
    41    24    25 1   
    42    24    29 1   
    43    25    26 1   
    44    25    47 1   
    45    25    48 1   
    46    26    27 1   
    47    26    49 1   
    48    26    50 1   
    49    27    28 1   
    50    27    31 1   
    51    27    51 1   
    52    28    29 1   
    53    28    30 1   
    54    28    52 1   
    55    29    53 1   
    56    29    54 1   
    57    31    32 1   
    58    32    55 1   
    59    32    56 1   
    60    32    57 1   
    61    33    58 1   
    62    44    59 1   
@<TRIPOS>SUBSTRUCTURE
     1 4ZR         1 TEMP              0 ****  ****    0 ROOT
