@<TRIPOS>MOLECULE
4ZT
   45    45     1     0     0
SMALL
No Charge or Current Charge


@<TRIPOS>ATOM
      1 N1           1.4080    -0.1380     0.4930 ns         1 4ZT      -0.518900
      2 C1           2.5280     0.1970     1.3630 c3         1 4ZT       0.173300
      3 C2           0.1090    -0.1830     0.9070 c          1 4ZT       0.648100
      4 C3           3.8360     0.1820     0.5890 ca         1 4ZT      -0.165300
      5 C4           4.5930    -1.0020     0.4990 ca         1 4ZT      -0.052500
      6 C5           5.8020    -1.0130    -0.2200 ca         1 4ZT      -0.184500
      7 C6           6.2580     0.1520    -0.8510 ca         1 4ZT       0.300000
      8 C7           5.5060     1.3320    -0.7660 ca         1 4ZT      -0.184500
      9 C8           4.2960     1.3500    -0.0490 ca         1 4ZT      -0.052500
     10 N9           7.4340     0.1380    -1.5480 nv         1 4ZT      -1.072000
     11 N10         -0.7550    -0.5190    -0.0990 ns         1 4ZT      -0.496900
     12 O13         -0.2420     0.0510     2.0500 o          1 4ZT      -0.641100
     13 C14         -2.2240    -0.6400     0.0540 c3         1 4ZT       0.062700
     14 C15         -2.7630    -1.8250    -0.7920 c          1 4ZT       0.572100
     15 O16         -4.0150    -2.2110    -0.3830 os         1 4ZT      -0.447100
     16 O17         -2.1450    -2.3580    -1.7060 o          1 4ZT      -0.487000
     17 C18         -4.6460    -3.3010    -1.0750 c3         1 4ZT       0.166600
     18 C19         -6.0230    -3.5200    -0.4280 c3         1 4ZT      -0.098100
     19 C20         -2.9630     0.6790    -0.2910 c3         1 4ZT      -0.070400
     20 C21         -2.5670     1.8780     0.5950 c3         1 4ZT       0.066600
     21 S22         -3.5740     3.3650     0.1520 ss         1 4ZT      -0.444000
     22 C23         -2.8710     4.5900     1.3480 c3         1 4ZT       0.043900
     23 H1           1.6020    -0.3470    -0.4760 hn         1 4ZT       0.312500
     24 H2           2.3600     1.1930     1.7950 h1         1 4ZT       0.056200
     25 H3           2.5710    -0.5280     2.1870 h1         1 4ZT       0.056200
     26 H4           4.2460    -1.9120     0.9850 ha         1 4ZT       0.114500
     27 H5           6.3790    -1.9310    -0.2840 ha         1 4ZT       0.113500
     28 H6           5.8530     2.2380    -1.2550 ha         1 4ZT       0.113500
     29 H7           3.7180     2.2700     0.0100 ha         1 4ZT       0.114500
     30 H8           8.0490    -0.6710    -1.4840 hn         1 4ZT       0.450000
     31 H9           7.8380     1.0120    -1.8780 hn         1 4ZT       0.450000
     32 H10         -0.3530    -0.7220    -1.0060 hn         1 4ZT       0.304500
     33 H11         -2.4500    -0.8980     1.0970 h1         1 4ZT       0.107700
     34 H12         -4.7760    -3.0670    -2.1400 h1         1 4ZT       0.049700
     35 H13         -4.0500    -4.2190    -0.9890 h1         1 4ZT       0.049700
     36 H14         -6.5480    -4.3450    -0.9230 hc         1 4ZT       0.046700
     37 H15         -5.9150    -3.7690     0.6340 hc         1 4ZT       0.046700
     38 H16         -6.6390    -2.6180    -0.5160 hc         1 4ZT       0.046700
     39 H17         -2.7770     0.9330    -1.3420 hc         1 4ZT       0.068200
     40 H18         -4.0430     0.5180    -0.1920 hc         1 4ZT       0.068200
     41 H19         -2.7330     1.6320     1.6520 h1         1 4ZT       0.064700
     42 H20         -1.5040     2.1140     0.4550 h1         1 4ZT       0.064700
     43 H21         -3.0260     4.2400     2.3760 h1         1 4ZT       0.060700
     44 H22         -1.7950     4.7130     1.1680 h1         1 4ZT       0.060700
     45 H23         -3.3690     5.5600     1.2210 h1         1 4ZT       0.060700
@<TRIPOS>BOND
     1     1     2 1   
     2     1     3 1   
     3     1    23 1   
     4     2     4 1   
     5     2    24 1   
     6     2    25 1   
     7     3    11 1   
     8     3    12 2   
     9     4     5 ar  
    10     4     9 ar  
    11     5     6 ar  
    12     5    26 1   
    13     6     7 ar  
    14     6    27 1   
    15     7     8 ar  
    16     7    10 1   
    17     8     9 ar  
    18     8    28 1   
    19     9    29 1   
    20    10    30 1   
    21    10    31 1   
    22    11    13 1   
    23    11    32 1   
    24    13    14 1   
    25    13    19 1   
    26    13    33 1   
    27    14    15 1   
    28    14    16 2   
    29    15    17 1   
    30    17    18 1   
    31    17    34 1   
    32    17    35 1   
    33    18    36 1   
    34    18    37 1   
    35    18    38 1   
    36    19    20 1   
    37    19    39 1   
    38    19    40 1   
    39    20    21 1   
    40    20    41 1   
    41    20    42 1   
    42    21    22 1   
    43    22    43 1   
    44    22    44 1   
    45    22    45 1   
@<TRIPOS>SUBSTRUCTURE
     1 4ZT         1 TEMP              0 ****  ****    0 ROOT
