@<TRIPOS>MOLECULE
4ZT
   45    45     1     0     0
SMALL
bcc


@<TRIPOS>ATOM
      1 N1           1.4150    -0.4970     0.3100 ns         1 4ZT      -0.585900
      2 C1           2.5210    -1.2110     0.9190 c3         1 4ZT       0.173300
      3 C2           0.1430    -0.6490     0.7430 c          1 4ZT       0.782100
      4 C3           3.8290    -0.6510     0.4380 ca         1 4ZT      -0.165300
      5 C4           4.5990    -1.3180    -0.5080 ca         1 4ZT      -0.070500
      6 C5           5.7960    -0.7930    -0.9700 ca         1 4ZT      -0.202500
      7 C6           6.2660     0.4370    -0.4960 ca         1 4ZT       0.161600
      8 C7           5.4920     1.1120     0.4580 ca         1 4ZT      -0.202500
      9 C8           4.3000     0.5740     0.9090 ca         1 4ZT      -0.070500
     10 N9           7.4260     0.9920    -0.9890 nv         1 4ZT      -0.823200
     11 N10         -0.7990     0.0450     0.0320 ns         1 4ZT      -0.563900
     12 O13         -0.1490    -1.3190     1.7270 o          1 4ZT      -0.641100
     13 C14         -2.1920    -0.2200     0.2500 c3         1 4ZT       0.062700
     14 C15         -2.5700    -1.6130    -0.2470 c          1 4ZT       0.621100
     15 O16         -3.7860    -1.9500     0.1460 os         1 4ZT      -0.423900
     16 O17         -1.8580    -2.3070    -0.9260 o          1 4ZT      -0.536000
     17 C18         -4.3120    -3.2170    -0.2850 c3         1 4ZT       0.143400
     18 C19         -5.7390    -3.3130     0.1950 c3         1 4ZT      -0.098100
     19 C20         -3.0530     0.8420    -0.4460 c3         1 4ZT      -0.070400
     20 C21         -2.7540     2.2400     0.0730 c3         1 4ZT       0.018700
     21 S22         -3.8950     3.4240    -0.6960 ss         1 4ZT      -0.348200
     22 C23         -3.3060     4.9500     0.0690 c3         1 4ZT      -0.004000
     23 H1           1.5950    -0.0250    -0.5610 hn         1 4ZT       0.312500
     24 H2           2.4470    -1.1170     2.0040 h1         1 4ZT       0.056200
     25 H3           2.4700    -2.2810     0.6900 h1         1 4ZT       0.056200
     26 H4           4.2640    -2.2740    -0.8950 ha         1 4ZT       0.132500
     27 H5           6.3750    -1.3410    -1.7040 ha         1 4ZT       0.131500
     28 H6           5.8320     2.0640     0.8480 ha         1 4ZT       0.131500
     29 H7           3.7250     1.1190     1.6490 ha         1 4ZT       0.132500
     30 H8           8.0860     0.3430    -1.3880 hn         1 4ZT       0.394800
     31 H9           7.8800     1.6650    -0.3920 hn         1 4ZT       0.394800
     32 H10         -0.5470     0.3810    -0.8860 hn         1 4ZT       0.304500
     33 H11         -2.4020    -0.1770     1.3210 h1         1 4ZT       0.107700
     34 H12         -4.2610    -3.2830    -1.3740 h1         1 4ZT       0.049700
     35 H13         -3.7040    -4.0220     0.1300 h1         1 4ZT       0.049700
     36 H14         -6.1570    -4.2690    -0.1200 hc         1 4ZT       0.046700
     37 H15         -5.8030    -3.2630     1.2820 hc         1 4ZT       0.046700
     38 H16         -6.3590    -2.5220    -0.2280 hc         1 4ZT       0.046700
     39 H17         -2.8920     0.7980    -1.5270 hc         1 4ZT       0.068200
     40 H18         -4.1040     0.6080    -0.2690 hc         1 4ZT       0.068200
     41 H19         -2.8800     2.2770     1.1580 h1         1 4ZT       0.064700
     42 H20         -1.7290     2.5370    -0.1560 h1         1 4ZT       0.064700
     43 H21         -3.4200     4.9170     1.1510 h1         1 4ZT       0.060700
     44 H22         -2.2620     5.1360    -0.1800 h1         1 4ZT       0.060700
     45 H23         -3.9090     5.7690    -0.3200 h1         1 4ZT       0.060700
@<TRIPOS>BOND
     1     1     2 1   
     2     1     3 1   
     3     1    23 1   
     4     2     4 1   
     5     2    24 1   
     6     2    25 1   
     7     3    11 1   
     8     3    12 2   
     9     4     5 ar  
    10     4     9 ar  
    11     5     6 ar  
    12     5    26 1   
    13     6     7 ar  
    14     6    27 1   
    15     7     8 ar  
    16     7    10 1   
    17     8     9 ar  
    18     8    28 1   
    19     9    29 1   
    20    10    30 1   
    21    10    31 1   
    22    11    13 1   
    23    11    32 1   
    24    13    14 1   
    25    13    19 1   
    26    13    33 1   
    27    14    15 1   
    28    14    16 2   
    29    15    17 1   
    30    17    18 1   
    31    17    34 1   
    32    17    35 1   
    33    18    36 1   
    34    18    37 1   
    35    18    38 1   
    36    19    20 1   
    37    19    39 1   
    38    19    40 1   
    39    20    21 1   
    40    20    41 1   
    41    20    42 1   
    42    21    22 1   
    43    22    43 1   
    44    22    44 1   
    45    22    45 1   
@<TRIPOS>SUBSTRUCTURE
     1 4ZT         1 TEMP              0 ****  ****    0 ROOT
