@<TRIPOS>MOLECULE
4ZU
   18    19     1     0     0
SMALL
bcc


@<TRIPOS>ATOM
      1 O01          5.1880    -0.4990    -0.0370 o          1 4ZU      -0.813300
      2 C02          4.3300     0.4010    -0.0340 c          1 4ZU       0.936800
      3 O03          4.5080     1.6340    -0.0350 o          1 4ZU      -0.813300
      4 C04          2.8950    -0.0520    -0.0290 cc         1 4ZU      -0.083300
      5 C05          2.3640    -1.3140    -0.0320 cd         1 4ZU      -0.216200
      6 C06          0.9460    -1.1710    -0.0280 ca         1 4ZU      -0.086800
      7 C07         -0.1320    -2.0620    -0.0260 ca         1 4ZU      -0.091000
      8 C08         -1.4220    -1.5710    -0.0220 ca         1 4ZU      -0.160000
      9 C09         -1.6440    -0.1850    -0.0190 ca         1 4ZU      -0.020900
     10 BR10        -3.4310     0.4430    -0.0140 br         1 4ZU      -0.164100
     11 C11         -0.6170     0.7350    -0.0190 ca         1 4ZU      -0.114000
     12 C12          0.6790     0.2200    -0.0240 ca         1 4ZU      -0.077200
     13 N13          1.8760     0.8620    -0.0240 na         1 4ZU      -0.144400
     14 H2           2.9230    -2.2360    -0.0360 ha         1 4ZU       0.158000
     15 H3           0.0340    -3.1320    -0.0290 ha         1 4ZU       0.121000
     16 H4          -2.2580    -2.2580    -0.0210 ha         1 4ZU       0.123000
     17 H5          -0.7970     1.8020    -0.0160 ha         1 4ZU       0.133000
     18 H6           2.0240     1.8580    -0.0280 hn         1 4ZU       0.312700
@<TRIPOS>BOND
     1     1     2 1   
     2     2     3 1   
     3     2     4 1   
     4     4     5 2   
     5     4    13 1   
     6     5     6 1   
     7     5    14 1   
     8     6     7 ar  
     9     6    12 ar  
    10     7     8 ar  
    11     7    15 1   
    12     8     9 ar  
    13     8    16 1   
    14     9    10 1   
    15     9    11 ar  
    16    11    12 ar  
    17    11    17 1   
    18    12    13 1   
    19    13    18 1   
@<TRIPOS>SUBSTRUCTURE
     1 4ZU         1 TEMP              0 ****  ****    0 ROOT
