@<TRIPOS>MOLECULE
4ZU
   18    19     1     0     0
SMALL
No Charge or Current Charge


@<TRIPOS>ATOM
      1 O01          5.1960    -0.6200    -0.0380 o          1 4ZU      -0.708000
      2 C02          4.4120     0.3190    -0.0350 c          1 4ZU       0.726200
      3 O03          4.7770     1.4870    -0.0330 o          1 4ZU      -0.708000
      4 C04          2.9430     0.0420    -0.0310 cc         1 4ZU      -0.083300
      5 C05          2.3450    -1.2180    -0.0320 cd         1 4ZU      -0.266200
      6 C06          0.9100    -1.1020    -0.0270 ca         1 4ZU      -0.086800
      7 C07         -0.1050    -2.0650    -0.0260 ca         1 4ZU      -0.073000
      8 C08         -1.4400    -1.6030    -0.0220 ca         1 4ZU      -0.142000
      9 C09         -1.7140    -0.2130    -0.0190 ca         1 4ZU      -0.020900
     10 Br10        -3.5270     0.3920    -0.0130 br         1 4ZU      -0.164100
     11 C11         -0.6630     0.7300    -0.0200 ca         1 4ZU      -0.096000
     12 C12          0.6500     0.2400    -0.0240 ca         1 4ZU      -0.077200
     13 N13          1.8490     0.9400    -0.0260 na         1 4ZU      -0.194700
     14 H2           2.8960    -2.1550    -0.0350 ha         1 4ZU       0.208000
     15 H3           0.1250    -3.1280    -0.0290 ha         1 4ZU       0.103000
     16 H4          -2.2580    -2.3190    -0.0210 ha         1 4ZU       0.105000
     17 H5          -0.8660     1.7980    -0.0170 ha         1 4ZU       0.115000
     18 H6           1.9360     1.9510    -0.0250 hn         1 4ZU       0.363000
@<TRIPOS>BOND
     1     1     2 1   
     2     2     3 1   
     3     2     4 1   
     4     4     5 2   
     5     4    13 1   
     6     5     6 1   
     7     5    14 1   
     8     6     7 ar  
     9     6    12 ar  
    10     7     8 ar  
    11     7    15 1   
    12     8     9 ar  
    13     8    16 1   
    14     9    10 1   
    15     9    11 ar  
    16    11    12 ar  
    17    11    17 1   
    18    12    13 1   
    19    13    18 1   
@<TRIPOS>SUBSTRUCTURE
     1 4ZU         1 TEMP              0 ****  ****    0 ROOT
