@<TRIPOS>MOLECULE
4ZV
   18    19     1     0     0
SMALL
bcc


@<TRIPOS>ATOM
      1 O01          2.9380    -1.4860    -0.0020 o          1 4ZV      -0.832800
      2 C02          2.6260    -0.2780     0.0150 c          1 4ZV       0.924200
      3 O03          3.4170     0.6870     0.0390 o          1 4ZV      -0.832800
      4 C04          1.1410     0.0490     0.0060 ca         1 4ZV      -0.165600
      5 C05          0.7070     1.3910     0.0130 ca         1 4ZV      -0.064000
      6 C06         -0.6300     1.7310     0.0060 ca         1 4ZV      -0.204000
      7 C07         -1.5620     0.6920    -0.0070 ca         1 4ZV      -0.057200
      8 N08         -2.9250     0.7160    -0.0170 na         1 4ZV      -0.188400
      9 C09         -3.4020    -0.5650    -0.0290 cc         1 4ZV      -0.161100
     10 C10         -2.3600    -1.4450    -0.0280 cd         1 4ZV      -0.182200
     11 C11         -1.1620    -0.6620    -0.0140 ca         1 4ZV      -0.121800
     12 C12          0.2020    -0.9690    -0.0080 ca         1 4ZV      -0.063000
     13 H2           1.4500     2.1760     0.0240 ha         1 4ZV       0.144000
     14 H3          -0.9430     2.7680     0.0110 ha         1 4ZV       0.105000
     15 H4          -3.4990     1.5420    -0.0120 hn         1 4ZV       0.276700
     16 H5          -4.4640    -0.7510    -0.0370 h4         1 4ZV       0.136000
     17 H6          -2.4370    -2.5210    -0.0350 ha         1 4ZV       0.139000
     18 H7           0.5310    -2.0010    -0.0150 ha         1 4ZV       0.148000
@<TRIPOS>BOND
     1     1     2 1   
     2     2     3 1   
     3     2     4 1   
     4     4     5 ar  
     5     4    12 ar  
     6     5     6 ar  
     7     5    13 1   
     8     6     7 ar  
     9     6    14 1   
    10     7     8 1   
    11     7    11 ar  
    12     8     9 1   
    13     8    15 1   
    14     9    10 2   
    15     9    16 1   
    16    10    11 1   
    17    10    17 1   
    18    11    12 ar  
    19    12    18 1   
@<TRIPOS>SUBSTRUCTURE
     1 4ZV         1 TEMP              0 ****  ****    0 ROOT
