@<TRIPOS>MOLECULE
4ZV
   18    19     1     0     0
SMALL
No Charge or Current Charge


@<TRIPOS>ATOM
      1 O01          2.9880    -1.4610     0.0070 o          1 4ZV      -0.727500
      2 C02          2.6530    -0.2850     0.0140 c          1 4ZV       0.713600
      3 O03          3.4610     0.6330     0.0270 o          1 4ZV      -0.727500
      4 C04          1.1730     0.0490     0.0070 ca         1 4ZV      -0.165600
      5 C05          0.7340     1.4070     0.0140 ca         1 4ZV      -0.046000
      6 C06         -0.6420     1.7290     0.0080 ca         1 4ZV      -0.186000
      7 C07         -1.5610     0.6760    -0.0070 ca         1 4ZV      -0.057200
      8 N08         -2.9460     0.7220    -0.0160 na         1 4ZV      -0.238700
      9 C09         -3.4750    -0.5880    -0.0300 cc         1 4ZV      -0.211100
     10 C10         -2.3570    -1.4100    -0.0290 cd         1 4ZV      -0.232200
     11 C11         -1.1510    -0.6240    -0.0140 ca         1 4ZV      -0.121800
     12 C12          0.2020    -0.9880    -0.0080 ca         1 4ZV      -0.045000
     13 H2           1.4610     2.2160     0.0260 ha         1 4ZV       0.126000
     14 H3          -0.9730     2.7640     0.0130 ha         1 4ZV       0.087000
     15 H4          -3.4940     1.5770    -0.0130 hn         1 4ZV       0.327000
     16 H5          -4.5390    -0.8100    -0.0390 h4         1 4ZV       0.186000
     17 H6          -2.3930    -2.4970    -0.0370 ha         1 4ZV       0.189000
     18 H7           0.4880    -2.0370    -0.0140 ha         1 4ZV       0.130000
@<TRIPOS>BOND
     1     1     2 1   
     2     2     3 1   
     3     2     4 1   
     4     4     5 ar  
     5     4    12 ar  
     6     5     6 ar  
     7     5    13 1   
     8     6     7 ar  
     9     6    14 1   
    10     7     8 1   
    11     7    11 ar  
    12     8     9 1   
    13     8    15 1   
    14     9    10 2   
    15     9    16 1   
    16    10    11 1   
    17    10    17 1   
    18    11    12 ar  
    19    12    18 1   
@<TRIPOS>SUBSTRUCTURE
     1 4ZV         1 TEMP              0 ****  ****    0 ROOT
