@<TRIPOS>MOLECULE
4ZW
   36    38     1     0     0
SMALL
abcg2


@<TRIPOS>ATOM
      1 O01          0.9610    -1.6450    -1.0110 o          1 4ZW      -0.604100
      2 C02          0.7690    -0.5430    -0.5100 c          1 4ZW       0.617700
      3 N03          1.7690     0.2680    -0.1240 ns         1 4ZW      -0.501900
      4 C05          3.1730    -0.0640    -0.2620 c6         1 4ZW       0.111700
      5 C07          3.7180    -0.7960     0.9630 c6         1 4ZW      -0.130900
      6 C10          5.2160    -1.0570     0.8060 c6         1 4ZW       0.151800
      7 N13          5.9960     0.1380     0.5270 n7         1 4ZW      -0.845400
      8 C15          5.4760     0.8640    -0.6190 c6         1 4ZW       0.151800
      9 C18          3.9870     1.1990    -0.5240 c6         1 4ZW      -0.130900
     10 C21         -0.6170    -0.0280    -0.3030 ca         1 4ZW      -0.184600
     11 C22         -1.6550    -0.9640    -0.2040 ca         1 4ZW      -0.003000
     12 C24         -2.9450    -0.5240    -0.0300 ca         1 4ZW      -0.157300
     13 C25         -3.2180     0.8450     0.0220 ca         1 4ZW      -0.007000
     14 N26         -4.5780     1.0330     0.1890 ns         1 4ZW      -0.149000
     15 C28         -5.2630    -0.1470     0.2530 c          1 4ZW       0.565000
     16 O29         -6.4620    -0.2600     0.3930 o          1 4ZW      -0.518000
     17 C30         -4.2370    -1.2610     0.1210 c5         1 4ZW      -0.117100
     18 C33         -2.2170     1.7910    -0.0930 ca         1 4ZW      -0.159000
     19 C35         -0.9140     1.3330    -0.2540 ca         1 4ZW      -0.050000
     20 H1           1.5490     1.0830     0.4270 hn         1 4ZW       0.309500
     21 H2           3.2650    -0.7230    -1.1290 h1         1 4ZW       0.083700
     22 H3           3.5420    -0.1880     1.8570 hc         1 4ZW       0.048700
     23 H4           3.1850    -1.7400     1.1070 hc         1 4ZW       0.048700
     24 H5           5.6100    -1.5320     1.7060 h1         1 4ZW       0.056700
     25 H6           5.3740    -1.7660    -0.0150 h1         1 4ZW       0.056700
     26 H7           5.9720     0.7430     1.3410 hn         1 4ZW       0.403000
     27 H9           6.0560     1.7800    -0.7500 h1         1 4ZW       0.056700
     28 H10          5.6490     0.2570    -1.5140 h1         1 4ZW       0.056700
     29 H11          3.6510     1.6780    -1.4470 hc         1 4ZW       0.048700
     30 H12          3.8270     1.9170     0.2890 hc         1 4ZW       0.048700
     31 H13         -1.4400    -2.0230    -0.2560 ha         1 4ZW       0.142000
     32 H14         -5.0240     1.9360     0.2590 hn         1 4ZW       0.174000
     33 H15         -4.4780    -1.8970    -0.7350 hc         1 4ZW       0.094200
     34 H16         -4.2680    -1.8990     1.0080 hc         1 4ZW       0.094200
     35 H17         -2.4310     2.8510    -0.0690 ha         1 4ZW       0.125000
     36 H18         -0.1310     2.0710    -0.3690 ha         1 4ZW       0.114000
@<TRIPOS>BOND
     1     1     2 2   
     2     2     3 1   
     3     2    10 1   
     4     3     4 1   
     5     3    20 1   
     6     4     5 1   
     7     4     9 1   
     8     4    21 1   
     9     5     6 1   
    10     5    22 1   
    11     5    23 1   
    12     6     7 1   
    13     6    24 1   
    14     6    25 1   
    15     7     8 1   
    16     7    26 1   
    17     8     9 1   
    18     8    27 1   
    19     8    28 1   
    20     9    29 1   
    21     9    30 1   
    22    10    11 ar  
    23    10    19 ar  
    24    11    12 ar  
    25    11    31 1   
    26    12    13 ar  
    27    12    17 1   
    28    13    14 1   
    29    13    18 ar  
    30    14    15 1   
    31    14    32 1   
    32    15    16 2   
    33    15    17 1   
    34    17    33 1   
    35    17    34 1   
    36    18    19 ar  
    37    18    35 1   
    38    19    36 1   
@<TRIPOS>SUBSTRUCTURE
     1 4ZW         1 TEMP              0 ****  ****    0 ROOT
