@<TRIPOS>MOLECULE
4ZW
   36    38     1     0     0
SMALL
No Charge or Current Charge


@<TRIPOS>ATOM
      1 O01          0.9680    -1.8750    -0.5780 o          1 4ZW      -0.604100
      2 C02          0.7650    -0.6930    -0.3360 c          1 4ZW       0.617700
      3 N03          1.8070     0.2010    -0.2190 ns         1 4ZW      -0.501900
      4 C05          3.2320    -0.1250    -0.3340 c6         1 4ZW       0.111700
      5 C07          3.7780    -0.6790     1.0050 c6         1 4ZW      -0.130900
      6 C10          5.2980    -0.9460     0.9150 c6         1 4ZW       0.151800
      7 N13          6.0250     0.2820     0.5140 n7         1 4ZW      -0.845400
      8 C15          5.5530     0.8310    -0.7800 c6         1 4ZW       0.151800
      9 C18          4.0380     1.1370    -0.7240 c6         1 4ZW      -0.130900
     10 C21         -0.6300    -0.1370    -0.1540 ca         1 4ZW      -0.184600
     11 C22         -1.7370    -1.0200    -0.2670 ca         1 4ZW      -0.003000
     12 C24         -3.0320    -0.5090    -0.0990 ca         1 4ZW      -0.157300
     13 C25         -3.2320     0.8230     0.1710 ca         1 4ZW      -0.007000
     14 N26         -4.6020     1.0260     0.2840 ns         1 4ZW      -0.149000
     15 C28         -5.4070    -0.0820     0.1110 c          1 4ZW       0.565000
     16 O29         -6.6300    -0.1140     0.1690 o          1 4ZW      -0.518000
     17 C30         -4.3790    -1.2250    -0.1660 c5         1 4ZW      -0.117100
     18 C33         -2.1790     1.7310     0.2920 ca         1 4ZW      -0.159000
     19 C35         -0.8670     1.2420     0.1270 ca         1 4ZW      -0.050000
     20 H1           1.5560     1.1600    -0.0210 hn         1 4ZW       0.309500
     21 H2           3.3600    -0.8860    -1.1200 h1         1 4ZW       0.083700
     22 H3           3.5750     0.0310     1.8190 hc         1 4ZW       0.048700
     23 H4           3.2590    -1.6110     1.2660 hc         1 4ZW       0.048700
     24 H5           5.6710    -1.2980     1.8890 h1         1 4ZW       0.056700
     25 H6           5.4880    -1.7450     0.1810 h1         1 4ZW       0.056700
     26 H7           5.8750     0.9950     1.2390 hn         1 4ZW       0.403000
     27 H9           6.1080     1.7510    -1.0190 h1         1 4ZW       0.056700
     28 H10          5.7530     0.1070    -1.5850 h1         1 4ZW       0.056700
     29 H11          3.7030     1.5070    -1.7030 hc         1 4ZW       0.048700
     30 H12          3.8520     1.9450    -0.0030 hc         1 4ZW       0.048700
     31 H13         -1.5950    -2.0780    -0.4800 ha         1 4ZW       0.142000
     32 H14         -4.9890     1.9390     0.4820 hn         1 4ZW       0.174000
     33 H15         -4.6010    -1.6740    -1.1400 hc         1 4ZW       0.094200
     34 H16         -4.5100    -2.0100     0.5860 hc         1 4ZW       0.094200
     35 H17         -2.3640     2.7810     0.5060 ha         1 4ZW       0.125000
     36 H18         -0.0450     1.9480     0.2210 ha         1 4ZW       0.114000
@<TRIPOS>BOND
     1     1     2 2   
     2     2     3 1   
     3     2    10 1   
     4     3     4 1   
     5     3    20 1   
     6     4     5 1   
     7     4     9 1   
     8     4    21 1   
     9     5     6 1   
    10     5    22 1   
    11     5    23 1   
    12     6     7 1   
    13     6    24 1   
    14     6    25 1   
    15     7     8 1   
    16     7    26 1   
    17     8     9 1   
    18     8    27 1   
    19     8    28 1   
    20     9    29 1   
    21     9    30 1   
    22    10    11 ar  
    23    10    19 ar  
    24    11    12 ar  
    25    11    31 1   
    26    12    13 ar  
    27    12    17 1   
    28    13    14 1   
    29    13    18 ar  
    30    14    15 1   
    31    14    32 1   
    32    15    16 2   
    33    15    17 1   
    34    17    33 1   
    35    17    34 1   
    36    18    19 ar  
    37    18    35 1   
    38    19    36 1   
@<TRIPOS>SUBSTRUCTURE
     1 4ZW         1 TEMP              0 ****  ****    0 ROOT
