@<TRIPOS>MOLECULE
4ZX
   73    78     1     0     0
SMALL
No Charge or Current Charge


@<TRIPOS>ATOM
      1 Cl1         -5.5540     4.1740    -1.1110 cl         1 4ZX      -0.168000
      2 C02         -5.9390     2.5250    -0.6090 ca         1 4ZX       0.197000
      3 C03         -7.2910     2.2640    -0.3040 ca         1 4ZX      -0.154000
      4 C05         -7.6300     0.9870     0.1400 ca         1 4ZX       0.000000
      5 C06         -6.7000    -0.0100     0.2910 ca         1 4ZX      -0.155300
      6 C07         -7.3870    -1.2810     0.7850 c5         1 4ZX      -0.117100
      7 C10         -8.8850    -0.8530     0.9070 c          1 4ZX       0.567000
      8 O11         -9.8640    -1.4930     1.2720 o          1 4ZX      -0.509000
      9 N12         -8.8660     0.4660     0.5030 ns         1 4ZX      -0.148000
     10 C14         -5.3500     0.2180    -0.0030 ca         1 4ZX      -0.030000
     11 C16         -4.9480     1.5050    -0.4620 ca         1 4ZX      -0.182600
     12 C17         -3.4940     1.7530    -0.7950 c          1 4ZX       0.615700
     13 O18         -3.1200     2.5630    -1.6300 o          1 4ZX      -0.579100
     14 N19         -2.5900     0.9490    -0.1360 ns         1 4ZX      -0.506900
     15 C21         -1.1310     0.9600    -0.3250 c6         1 4ZX       0.127700
     16 C23         -0.7040     0.1930    -1.6040 c6         1 4ZX      -0.081900
     17 C26         -0.5480    -1.3410    -1.4000 c5         1 4ZX       0.216500
     18 C28         -1.7860    -2.0850    -0.8160 c5         1 4ZX      -0.102400
     19 C31         -1.6000    -1.9690     0.7350 c5         1 4ZX      -0.102400
     20 C34         -0.2660    -1.1750     0.8940 c5         1 4ZX       0.216500
     21 C36         -0.3940     0.3770     0.9080 c6         1 4ZX      -0.081900
     22 N39          0.4600    -1.5460    -0.3390 n3         1 4ZX      -0.786500
     23 S40          1.4060    -2.9800    -0.3510 s6         1 4ZX       1.265200
     24 O41          1.0890    -3.7770     0.8370 o          1 4ZX      -0.553000
     25 O42          1.3410    -3.5890    -1.6830 o          1 4ZX      -0.553000
     26 N43          2.9680    -2.2920    -0.1670 n3         1 4ZX      -0.704500
     27 C44          3.2410    -1.7530     1.1880 c6         1 4ZX       0.191800
     28 C47          4.7210    -1.3380     1.3450 c6         1 4ZX      -0.076900
     29 C50          5.1210    -0.3030     0.2710 c6         1 4ZX       0.178500
     30 C52          4.7920    -0.8680    -1.1320 c6         1 4ZX      -0.076900
     31 C55          3.3090    -1.2970    -1.2150 c6         1 4ZX       0.191800
     32 N58          6.5490     0.0550     0.4110 n7         1 4ZX      -0.861400
     33 C60          7.0470     1.1920    -0.3850 c3         1 4ZX       0.206100
     34 C63          8.5000     1.4830    -0.0390 ca         1 4ZX      -0.094300
     35 C64          9.5370     0.7540    -0.6560 ca         1 4ZX      -0.096500
     36 C66         10.8800     1.0240    -0.3400 ca         1 4ZX      -0.114500
     37 C68         11.1960     2.0250     0.5940 ca         1 4ZX      -0.106000
     38 C70         10.1670     2.7550     1.2130 ca         1 4ZX      -0.114500
     39 C72          8.8230     2.4850     0.8980 ca         1 4ZX      -0.096500
     40 H1          -8.0450     3.0390    -0.4070 ha         1 4ZX       0.142000
     41 H2          -7.3160    -2.1270     0.0930 hc         1 4ZX       0.094700
     42 H3          -7.0370    -1.6330     1.7600 hc         1 4ZX       0.094700
     43 H4          -9.7080     1.0260     0.4770 hn         1 4ZX       0.178000
     44 H5          -4.6440    -0.6020     0.1040 ha         1 4ZX       0.126000
     45 H6          -2.9740     0.3250     0.5600 hn         1 4ZX       0.315500
     46 H7          -0.8330     2.0130    -0.4340 h1         1 4ZX       0.065700
     47 H8          -1.4100     0.3900    -2.4210 hc         1 4ZX       0.058700
     48 H9           0.2620     0.5900    -1.9430 hc         1 4ZX       0.058700
     49 H10         -0.2440    -1.7660    -2.3670 h1         1 4ZX       0.084700
     50 H11         -2.7300    -1.6550    -1.1680 hc         1 4ZX       0.058200
     51 H12         -1.7880    -3.1360    -1.1260 hc         1 4ZX       0.058200
     52 H13         -2.4410    -1.4770     1.2350 hc         1 4ZX       0.058200
     53 H14         -1.5170    -2.9640     1.1860 hc         1 4ZX       0.058200
     54 H15          0.2700    -1.4710     1.8070 h1         1 4ZX       0.084700
     55 H16          0.6200     0.7990     0.9420 hc         1 4ZX       0.058700
     56 H17         -0.8850     0.7050     1.8340 hc         1 4ZX       0.058700
     57 H18          2.6020    -0.8800     1.3910 h1         1 4ZX       0.053700
     58 H19          3.0150    -2.5040     1.9580 h1         1 4ZX       0.053700
     59 H20          4.8800    -0.9230     2.3490 hc         1 4ZX       0.060200
     60 H21          5.3590    -2.2290     1.2650 hc         1 4ZX       0.060200
     61 H22          4.5200     0.6050     0.4340 h1         1 4ZX       0.012700
     62 H23          4.9890    -0.1170    -1.9070 hc         1 4ZX       0.060200
     63 H24          5.4360    -1.7300    -1.3520 hc         1 4ZX       0.060200
     64 H25          3.1280    -1.7140    -2.2160 h1         1 4ZX       0.053700
     65 H26          2.6770    -0.4020    -1.1210 h1         1 4ZX       0.053700
     66 H27          6.7240     0.2870     1.3950 hn         1 4ZX       0.415000
     67 H29          6.9740     0.9780    -1.4600 h1         1 4ZX       0.036200
     68 H30          6.4440     2.0900    -0.1890 h1         1 4ZX       0.036200
     69 H31          9.2980    -0.0240    -1.3770 ha         1 4ZX       0.116500
     70 H32         11.6750     0.4570    -0.8190 ha         1 4ZX       0.112000
     71 H33         12.2350     2.2350     0.8380 ha         1 4ZX       0.112000
     72 H34         10.4100     3.5300     1.9370 ha         1 4ZX       0.112000
     73 H35          8.0330     3.0560     1.3820 ha         1 4ZX       0.116500
@<TRIPOS>BOND
     1     1     2 1   
     2     2     3 ar  
     3     2    11 ar  
     4     3     4 ar  
     5     3    40 1   
     6     4     5 ar  
     7     4     9 1   
     8     5     6 1   
     9     5    10 ar  
    10     6     7 1   
    11     6    41 1   
    12     6    42 1   
    13     7     8 2   
    14     7     9 1   
    15     9    43 1   
    16    10    11 ar  
    17    10    44 1   
    18    11    12 1   
    19    12    13 2   
    20    12    14 1   
    21    14    15 1   
    22    14    45 1   
    23    15    16 1   
    24    15    21 1   
    25    15    46 1   
    26    16    17 1   
    27    16    47 1   
    28    16    48 1   
    29    17    18 1   
    30    17    22 1   
    31    17    49 1   
    32    18    19 1   
    33    18    50 1   
    34    18    51 1   
    35    19    20 1   
    36    19    52 1   
    37    19    53 1   
    38    20    21 1   
    39    20    22 1   
    40    20    54 1   
    41    21    55 1   
    42    21    56 1   
    43    22    23 1   
    44    23    24 2   
    45    23    25 2   
    46    23    26 1   
    47    26    27 1   
    48    26    31 1   
    49    27    28 1   
    50    27    57 1   
    51    27    58 1   
    52    28    29 1   
    53    28    59 1   
    54    28    60 1   
    55    29    30 1   
    56    29    32 1   
    57    29    61 1   
    58    30    31 1   
    59    30    62 1   
    60    30    63 1   
    61    31    64 1   
    62    31    65 1   
    63    32    33 1   
    64    32    66 1   
    65    33    34 1   
    66    33    67 1   
    67    33    68 1   
    68    34    35 ar  
    69    34    39 ar  
    70    35    36 ar  
    71    35    69 1   
    72    36    37 ar  
    73    36    70 1   
    74    37    38 ar  
    75    37    71 1   
    76    38    39 ar  
    77    38    72 1   
    78    39    73 1   
@<TRIPOS>SUBSTRUCTURE
     1 4ZX         1 TEMP              0 ****  ****    0 ROOT
