@<TRIPOS>MOLECULE
4ZX
   73    78     1     0     0
SMALL
bcc


@<TRIPOS>ATOM
      1 CL1         -5.3790     4.0000    -0.3220 cl         1 4ZX      -0.076400
      2 C02         -5.9500     2.3680    -0.2290 ca         1 4ZX       0.105400
      3 C03         -7.2890     2.1850     0.0970 ca         1 4ZX      -0.172000
      4 C05         -7.7420     0.8840     0.2010 ca         1 4ZX       0.092600
      5 C06         -6.8990    -0.2090     0.0040 ca         1 4ZX      -0.155300
      6 C07         -7.7010    -1.4560     0.1850 c5         1 4ZX      -0.117100
      7 C10         -9.0910    -0.9310     0.5100 c          1 4ZX       0.709500
      8 O11        -10.0880    -1.5770     0.7400 o          1 4ZX      -0.584500
      9 N12         -9.0130     0.4350     0.4970 ns         1 4ZX      -0.474100
     10 C14         -5.5750    -0.0020    -0.2990 ca         1 4ZX      -0.048000
     11 C16         -5.0770     1.3010    -0.4270 ca         1 4ZX      -0.182600
     12 C17         -3.6490     1.5040    -0.8250 c          1 4ZX       0.682700
     13 O18         -3.3310     2.2250    -1.7580 o          1 4ZX      -0.579100
     14 N19         -2.7650     0.8020    -0.0960 ns         1 4ZX      -0.573900
     15 C21         -1.3270     0.8700    -0.3270 c6         1 4ZX       0.127700
     16 C23         -0.8980     0.1090    -1.5930 c6         1 4ZX      -0.081900
     17 C26         -0.6200    -1.3710    -1.3550 c5         1 4ZX       0.216500
     18 C28         -1.7980    -2.1340    -0.7270 c5         1 4ZX      -0.102400
     19 C31         -1.5750    -2.0020     0.7920 c5         1 4ZX      -0.102400
     20 C34         -0.3120    -1.1330     0.9190 c5         1 4ZX       0.216500
     21 C36         -0.5700     0.3730     0.9110 c6         1 4ZX      -0.081900
     22 N39          0.4250    -1.4300    -0.3190 n3         1 4ZX      -0.786500
     23 S40          1.5680    -2.6220    -0.3230 s6         1 4ZX       1.406800
     24 O41          1.3770    -3.5290     0.7980 o          1 4ZX      -0.623800
     25 O42          1.6150    -3.1670    -1.6680 o          1 4ZX      -0.623800
     26 N43          3.0070    -1.8520    -0.0650 n3         1 4ZX      -0.704500
     27 C44          3.3120    -1.4350     1.3060 c6         1 4ZX       0.191800
     28 C47          4.7980    -1.1400     1.4180 c6         1 4ZX      -0.076900
     29 C50          5.2400    -0.0740     0.4250 c6         1 4ZX       0.178500
     30 C52          4.8320    -0.5080    -0.9780 c6         1 4ZX      -0.076900
     31 C55          3.3480    -0.8250    -1.0520 c6         1 4ZX       0.191800
     32 N58          6.6770     0.1120     0.5300 n7         1 4ZX      -0.806200
     33 C60          7.1820     1.2780    -0.1720 c3         1 4ZX       0.206100
     34 C63          8.6740     1.4030    -0.0100 ca         1 4ZX      -0.094300
     35 C64          9.5090     0.3270    -0.3100 ca         1 4ZX      -0.114500
     36 C66         10.8850     0.4430    -0.1820 ca         1 4ZX      -0.132500
     37 C68         11.4500     1.6370     0.2530 ca         1 4ZX      -0.124000
     38 C70         10.6270     2.7100     0.5610 ca         1 4ZX      -0.132500
     39 C72          9.2480     2.5900     0.4310 ca         1 4ZX      -0.114500
     40 H1          -7.9420     3.0300     0.2600 ha         1 4ZX       0.160000
     41 H2          -7.7350    -2.0810    -0.7100 hc         1 4ZX       0.094700
     42 H3          -7.3380    -2.0860     1.0010 hc         1 4ZX       0.094700
     43 H4          -9.8020     1.0360     0.6860 hn         1 4ZX       0.344500
     44 H5          -4.9210    -0.8490    -0.4660 ha         1 4ZX       0.144000
     45 H6          -3.0920     0.3810     0.7580 hn         1 4ZX       0.315500
     46 H7          -1.0750     1.9230    -0.4720 h1         1 4ZX       0.065700
     47 H8          -1.6510     0.2220    -2.3740 hc         1 4ZX       0.058700
     48 H9           0.0180     0.5670    -1.9720 hc         1 4ZX       0.058700
     49 H10         -0.2750    -1.8200    -2.2830 h1         1 4ZX       0.084700
     50 H11         -2.7570    -1.7400    -1.0590 hc         1 4ZX       0.058200
     51 H12         -1.7640    -3.1820    -1.0290 hc         1 4ZX       0.058200
     52 H13         -2.4290    -1.5890     1.3310 hc         1 4ZX       0.058200
     53 H14         -1.3800    -2.9790     1.2340 hc         1 4ZX       0.058200
     54 H15          0.2700    -1.3860     1.8050 h1         1 4ZX       0.084700
     55 H16          0.3990     0.8760     0.9420 hc         1 4ZX       0.058700
     56 H17         -1.0960     0.6690     1.8220 hc         1 4ZX       0.058700
     57 H18          2.7360    -0.5420     1.5830 h1         1 4ZX       0.053700
     58 H19          3.0490    -2.2320     1.9980 h1         1 4ZX       0.053700
     59 H20          5.0090    -0.8170     2.4410 hc         1 4ZX       0.060200
     60 H21          5.3670    -2.0570     1.2420 hc         1 4ZX       0.060200
     61 H22          4.6950     0.8580     0.6630 h1         1 4ZX       0.012700
     62 H23          5.0370     0.2740    -1.7120 hc         1 4ZX       0.060200
     63 H24          5.4150    -1.3870    -1.2680 hc         1 4ZX       0.060200
     64 H25          3.1060    -1.1850    -2.0510 h1         1 4ZX       0.053700
     65 H26          2.7550     0.0820    -0.8780 h1         1 4ZX       0.053700
     66 H27          6.9160     0.2080     1.5110 hn         1 4ZX       0.359800
     67 H29          6.9540     1.1710    -1.2360 h1         1 4ZX       0.036200
     68 H30          6.7000     2.2130     0.1520 h1         1 4ZX       0.036200
     69 H31          9.0760    -0.6070    -0.6470 ha         1 4ZX       0.134500
     70 H32         11.5210    -0.4000    -0.4240 ha         1 4ZX       0.130000
     71 H33         12.5240     1.7260     0.3530 ha         1 4ZX       0.130000
     72 H34         11.0560     3.6420     0.9070 ha         1 4ZX       0.130000
     73 H35          8.6110     3.4310     0.6800 ha         1 4ZX       0.134500
@<TRIPOS>BOND
     1     1     2 1   
     2     2     3 ar  
     3     2    11 ar  
     4     3     4 ar  
     5     3    40 1   
     6     4     5 ar  
     7     4     9 1   
     8     5     6 1   
     9     5    10 ar  
    10     6     7 1   
    11     6    41 1   
    12     6    42 1   
    13     7     8 2   
    14     7     9 1   
    15     9    43 1   
    16    10    11 ar  
    17    10    44 1   
    18    11    12 1   
    19    12    13 2   
    20    12    14 1   
    21    14    15 1   
    22    14    45 1   
    23    15    16 1   
    24    15    21 1   
    25    15    46 1   
    26    16    17 1   
    27    16    47 1   
    28    16    48 1   
    29    17    18 1   
    30    17    22 1   
    31    17    49 1   
    32    18    19 1   
    33    18    50 1   
    34    18    51 1   
    35    19    20 1   
    36    19    52 1   
    37    19    53 1   
    38    20    21 1   
    39    20    22 1   
    40    20    54 1   
    41    21    55 1   
    42    21    56 1   
    43    22    23 1   
    44    23    24 2   
    45    23    25 2   
    46    23    26 1   
    47    26    27 1   
    48    26    31 1   
    49    27    28 1   
    50    27    57 1   
    51    27    58 1   
    52    28    29 1   
    53    28    59 1   
    54    28    60 1   
    55    29    30 1   
    56    29    32 1   
    57    29    61 1   
    58    30    31 1   
    59    30    62 1   
    60    30    63 1   
    61    31    64 1   
    62    31    65 1   
    63    32    33 1   
    64    32    66 1   
    65    33    34 1   
    66    33    67 1   
    67    33    68 1   
    68    34    35 ar  
    69    34    39 ar  
    70    35    36 ar  
    71    35    69 1   
    72    36    37 ar  
    73    36    70 1   
    74    37    38 ar  
    75    37    71 1   
    76    38    39 ar  
    77    38    72 1   
    78    39    73 1   
@<TRIPOS>SUBSTRUCTURE
     1 4ZX         1 TEMP              0 ****  ****    0 ROOT
