@<TRIPOS>MOLECULE
4ZY
   19    19     1     0     0
SMALL
No Charge or Current Charge


@<TRIPOS>ATOM
      1 N1          -3.1910    -0.0950     0.7650 n8         1 4ZY      -0.996200
      2 C1          -2.4590     0.0050    -0.5070 c3         1 4ZY       0.204100
      3 C2          -0.9550     0.0090    -0.2760 ca         1 4ZY      -0.133300
      4 C7          -0.2540    -1.2060    -0.1460 ca         1 4ZY      -0.056500
      5 C6           1.1380    -1.2020     0.0600 ca         1 4ZY      -0.180500
      6 C5           1.8350     0.0120     0.1370 ca         1 4ZY       0.286000
      7 C4           1.1430     1.2240     0.0080 ca         1 4ZY      -0.180500
      8 C3          -0.2490     1.2260    -0.1980 ca         1 4ZY      -0.056500
      9 N2           3.1880     0.0130     0.3360 nv         1 4ZY      -1.067000
     10 H11N        -2.9700     0.7310     1.3340 hn         1 4ZY       0.393500
     11 H12N        -4.1960    -0.0000     0.5770 hn         1 4ZY       0.393500
     12 H11C        -2.7370    -0.8450    -1.1450 h1         1 4ZY       0.030200
     13 H12C        -2.7610     0.9300    -1.0190 h1         1 4ZY       0.030200
     14 H7          -0.7880    -2.1530    -0.2030 ha         1 4ZY       0.113000
     15 H3          -0.7770     2.1720    -0.2980 ha         1 4ZY       0.113000
     16 H6           1.6690    -2.1450     0.1600 ha         1 4ZY       0.110500
     17 H4           1.6780     2.1680     0.0670 ha         1 4ZY       0.110500
     18 H21N         3.7090    -0.8610     0.2910 hn         1 4ZY       0.443000
     19 H22N         3.7140     0.8820     0.2540 hn         1 4ZY       0.443000
@<TRIPOS>BOND
     1     1     2 1   
     2     1    10 1   
     3     1    11 1   
     4     2     3 1   
     5     2    12 1   
     6     2    13 1   
     7     3     4 ar  
     8     3     8 ar  
     9     4     5 ar  
    10     4    14 1   
    11     5     6 ar  
    12     5    16 1   
    13     6     7 ar  
    14     6     9 1   
    15     7     8 ar  
    16     7    17 1   
    17     8    15 1   
    18     9    18 1   
    19     9    19 1   
@<TRIPOS>SUBSTRUCTURE
     1 4ZY         1 TEMP              0 ****  ****    0 ROOT
