@<TRIPOS>MOLECULE
4ZY
   19    19     1     0     0
SMALL
bcc


@<TRIPOS>ATOM
      1 N1          -3.1690    -0.4250     0.6350 n8         1 4ZY      -0.885800
      2 C1          -2.4450     0.1700    -0.4800 c3         1 4ZY       0.204100
      3 C2          -0.9570     0.1240    -0.2550 ca         1 4ZY      -0.133300
      4 C7          -0.3080    -1.0780     0.0240 ca         1 4ZY      -0.074500
      5 C6           1.0600    -1.1330     0.2240 ca         1 4ZY      -0.198500
      6 C5           1.8420     0.0290     0.1600 ca         1 4ZY       0.147600
      7 C4           1.1950     1.2370    -0.1140 ca         1 4ZY      -0.198500
      8 C3          -0.1780     1.2740    -0.3140 ca         1 4ZY      -0.074500
      9 N2           3.1990    -0.0140     0.4160 nv         1 4ZY      -0.818200
     10 H11N        -3.0590     0.1590     1.4540 hn         1 4ZY       0.338300
     11 H12N        -4.1600    -0.4280     0.4260 hn         1 4ZY       0.338300
     12 H11C        -2.6980    -0.4030    -1.3780 h1         1 4ZY       0.030200
     13 H12C        -2.7340     1.2080    -0.6950 h1         1 4ZY       0.030200
     14 H7          -0.8850    -1.9930     0.0860 ha         1 4ZY       0.131000
     15 H3          -0.6490     2.2280    -0.5240 ha         1 4ZY       0.131000
     16 H6           1.5350    -2.0840     0.4360 ha         1 4ZY       0.128500
     17 H4           1.7710     2.1540    -0.1680 ha         1 4ZY       0.128500
     18 H21N         3.6410    -0.9020     0.2380 hn         1 4ZY       0.387800
     19 H22N         3.7360     0.7430     0.0250 hn         1 4ZY       0.387800
@<TRIPOS>BOND
     1     1     2 1   
     2     1    10 1   
     3     1    11 1   
     4     2     3 1   
     5     2    12 1   
     6     2    13 1   
     7     3     4 ar  
     8     3     8 ar  
     9     4     5 ar  
    10     4    14 1   
    11     5     6 ar  
    12     5    16 1   
    13     6     7 ar  
    14     6     9 1   
    15     7     8 ar  
    16     7    17 1   
    17     8    15 1   
    18     9    18 1   
    19     9    19 1   
@<TRIPOS>SUBSTRUCTURE
     1 4ZY         1 TEMP              0 ****  ****    0 ROOT
