@<TRIPOS>MOLECULE
4ZZ
   44    45     1     0     0
SMALL
No Charge or Current Charge


@<TRIPOS>ATOM
      1 C14         -3.3700    -0.5480     0.2780 cp         1 4ZZ      -0.045000
      2 C15         -3.6370    -1.6670     1.1040 ca         1 4ZZ      -0.095000
      3 C16         -2.7770    -2.7780     1.1160 ca         1 4ZZ      -0.115000
      4 C17         -1.6290    -2.7880     0.3060 ca         1 4ZZ      -0.088000
      5 C22         -4.5410     3.0820     0.4460 ca         1 4ZZ       0.285900
      6 C20         -6.4250     1.7880     0.0990 ca         1 4ZZ       0.269900
      7 C19         -5.6790     0.5740     0.0800 ca         1 4ZZ       0.253000
      8 C18         -4.2680     0.6510     0.2690 cp         1 4ZZ      -0.070000
      9 C2           7.5100     1.4130     1.1400 c3         1 4ZZ       0.168600
     10 C13         -2.2010    -0.5730    -0.5210 ca         1 4ZZ      -0.095000
     11 C1           8.9090     1.5670     0.5240 c3         1 4ZZ      -0.098100
     12 C6           4.5970    -0.1090    -0.6910 c3         1 4ZZ       0.059000
     13 C4           5.3590     0.5560     0.4770 c          1 4ZZ       0.583100
     14 C12         -1.3350    -1.6840    -0.5160 ca         1 4ZZ      -0.117300
     15 C11         -0.0880    -1.6870    -1.3870 c3         1 4ZZ       0.160300
     16 O3           6.6690     0.7960     0.1500 os         1 4ZZ      -0.444100
     17 O5           4.8560     0.8340     1.5600 o          1 4ZZ      -0.499000
     18 N7           3.1780    -0.3780    -0.3610 ns         1 4ZZ      -0.528900
     19 O9           2.5810    -1.3140    -2.3470 o          1 4ZZ      -0.645100
     20 N10          1.0450    -1.0970    -0.6800 ns         1 4ZZ      -0.520900
     21 N21         -5.8800     3.0170     0.2780 nb         1 4ZZ      -0.633000
     22 C23         -3.7150     1.9440     0.4450 ca         1 4ZZ      -0.116000
     23 H1          -4.5120    -1.6660     1.7500 ha         1 4ZZ       0.128000
     24 H2          -2.9960    -3.6290     1.7570 ha         1 4ZZ       0.116000
     25 H3          -0.9660    -3.6500     0.3230 ha         1 4ZZ       0.122000
     26 H4          -4.1160     4.0750     0.5870 h4         1 4ZZ       0.021100
     27 H5          -7.5050     1.7690    -0.0450 h4         1 4ZZ       0.016100
     28 H6           7.5730     0.7930     2.0440 h1         1 4ZZ       0.051200
     29 H7           7.1230     2.4020     1.4220 h1         1 4ZZ       0.051200
     30 H8          -1.9720     0.2790    -1.1560 ha         1 4ZZ       0.114000
     31 H9           9.3190     0.5880     0.2490 hc         1 4ZZ       0.049367
     32 H10          8.8700     2.1960    -0.3730 hc         1 4ZZ       0.049367
     33 H11          9.5910     2.0350     1.2430 hc         1 4ZZ       0.049367
     34 H12          4.6570     0.5590    -1.5600 h1         1 4ZZ       0.081200
     35 H13          5.1070    -1.0480    -0.9380 h1         1 4ZZ       0.081200
     36 H14          0.1650    -2.7170    -1.6740 h1         1 4ZZ       0.067200
     37 H15         -0.2740    -1.1160    -2.3070 h1         1 4ZZ       0.067200
     38 H16          2.8400    -0.1160     0.5570 hn         1 4ZZ       0.333500
     39 H17          0.9010    -0.7720     0.2660 hn         1 4ZZ       0.310500
     40 H18         -2.6460     2.0680     0.5920 ha         1 4ZZ       0.121000
     41 H19         -7.2760    -0.6820    -0.4410 hn         1 4ZZ       0.454500
     42 H20         -5.7280    -1.4730    -0.3180 hn         1 4ZZ       0.454500
     43 N24         -6.3000    -0.6480    -0.1470 nv         1 4ZZ      -1.067000
     44 C8           2.2900    -0.9580    -1.2190 c          1 4ZZ       0.656100
@<TRIPOS>BOND
     1     1     2 ar  
     2     1     8 1   
     3     1    10 ar  
     4     2     3 ar  
     5     2    23 1   
     6     3     4 ar  
     7     3    24 1   
     8     4    14 ar  
     9     4    25 1   
    10     5    21 ar  
    11     5    22 ar  
    12     5    26 1   
    13     6     7 ar  
    14     6    21 ar  
    15     6    27 1   
    16     7     8 ar  
    17     7    43 1   
    18     8    22 ar  
    19     9    11 1   
    20     9    16 1   
    21     9    28 1   
    22     9    29 1   
    23    10    14 ar  
    24    10    30 1   
    25    11    31 1   
    26    11    32 1   
    27    11    33 1   
    28    12    13 1   
    29    12    18 1   
    30    12    34 1   
    31    12    35 1   
    32    13    16 1   
    33    13    17 2   
    34    14    15 1   
    35    15    20 1   
    36    15    36 1   
    37    15    37 1   
    38    18    38 1   
    39    18    44 1   
    40    19    44 2   
    41    20    39 1   
    42    20    44 1   
    43    22    40 1   
    44    41    43 1   
    45    42    43 1   
@<TRIPOS>SUBSTRUCTURE
     1 4ZZ         1 TEMP              0 ****  ****    0 ROOT
