@<TRIPOS>MOLECULE
4ZZ
   44    45     1     0     0
SMALL
abcg2


@<TRIPOS>ATOM
      1 C14         -3.3490    -0.0920     0.2930 cp         1 4ZZ      -0.045000
      2 C15         -2.9160    -0.8640     1.3710 ca         1 4ZZ      -0.095000
      3 C16         -1.5850    -1.2430     1.4630 ca         1 4ZZ      -0.115000
      4 C17         -0.6750    -0.8670     0.4860 ca         1 4ZZ      -0.088000
      5 C22         -6.3460     2.1470    -0.1000 ca         1 4ZZ       0.285900
      6 C20         -7.1230     0.0270     0.1550 ca         1 4ZZ       0.269900
      7 C19         -5.8380    -0.5220     0.2710 ca         1 4ZZ       0.253000
      8 C18         -4.7510     0.3660     0.1920 cp         1 4ZZ      -0.070000
      9 C2           7.8370     0.3980     1.0360 c3         1 4ZZ       0.168600
     10 C13         -2.4220     0.2840    -0.6780 ca         1 4ZZ      -0.095000
     11 C1           8.9570    -0.6120     1.0830 c3         1 4ZZ      -0.098100
     12 C6           4.5590    -0.3250    -0.4930 c3         1 4ZZ       0.059000
     13 C4           5.6140     0.4810     0.2240 c          1 4ZZ       0.583100
     14 C12         -1.0880    -0.0960    -0.5970 ca         1 4ZZ      -0.117300
     15 C11         -0.1270     0.3080    -1.6920 c3         1 4ZZ       0.160300
     16 O3           6.7230    -0.2170     0.3630 os         1 4ZZ      -0.444100
     17 O5           5.4600     1.6100     0.6200 o          1 4ZZ      -0.499000
     18 N7           3.3630     0.4510    -0.6440 ns         1 4ZZ      -0.528900
     19 O9           2.2440    -1.2250    -1.6680 o          1 4ZZ      -0.645100
     20 N10          1.1650     0.7290    -1.2190 ns         1 4ZZ      -0.520900
     21 N21         -7.3750     1.3120    -0.0190 nb         1 4ZZ      -0.633000
     22 C23         -5.0350     1.7140    -0.0030 ca         1 4ZZ      -0.116000
     23 H1          -3.6120    -1.1520     2.1480 ha         1 4ZZ       0.128000
     24 H2          -1.2540    -1.8340     2.3080 ha         1 4ZZ       0.116000
     25 H3           0.3570    -1.1810     0.5730 ha         1 4ZZ       0.122000
     26 H4          -6.5710     3.1980    -0.2430 h4         1 4ZZ       0.021100
     27 H5          -7.9820    -0.6370     0.2080 h4         1 4ZZ       0.016100
     28 H6           7.5350     0.6940     2.0420 h1         1 4ZZ       0.051200
     29 H7           8.1390     1.2960     0.4940 h1         1 4ZZ       0.051200
     30 H8          -2.7500     0.8820    -1.5220 ha         1 4ZZ       0.114000
     31 H9           8.6660    -1.5080     1.6290 hc         1 4ZZ       0.049367
     32 H10          9.2810    -0.9000     0.0830 hc         1 4ZZ       0.049367
     33 H11          9.8120    -0.1720     1.5960 hc         1 4ZZ       0.049367
     34 H12          4.9660    -0.6360    -1.4610 h1         1 4ZZ       0.081200
     35 H13          4.3860    -1.2440     0.0760 h1         1 4ZZ       0.081200
     36 H14          0.0150    -0.5250    -2.3810 h1         1 4ZZ       0.067200
     37 H15         -0.5710     1.1160    -2.2760 h1         1 4ZZ       0.067200
     38 H16          3.3300     1.3540    -0.1980 hn         1 4ZZ       0.333500
     39 H17          1.2110     1.6170    -0.7460 hn         1 4ZZ       0.310500
     40 H18         -4.2270     2.4320    -0.0620 ha         1 4ZZ       0.121000
     41 H19         -6.4730    -2.4400     0.2150 hn         1 4ZZ       0.454500
     42 H20         -4.8140    -2.2770     0.1720 hn         1 4ZZ       0.454500
     43 N24         -5.6840    -1.8720     0.4830 nv         1 4ZZ      -1.067000
     44 C8           2.2510    -0.0900    -1.2010 c          1 4ZZ       0.656100
@<TRIPOS>BOND
     1     1     2 ar  
     2     1     8 1   
     3     1    10 ar  
     4     2     3 ar  
     5     2    23 1   
     6     3     4 ar  
     7     3    24 1   
     8     4    14 ar  
     9     4    25 1   
    10     5    21 ar  
    11     5    22 ar  
    12     5    26 1   
    13     6     7 ar  
    14     6    21 ar  
    15     6    27 1   
    16     7     8 ar  
    17     7    43 1   
    18     8    22 ar  
    19     9    11 1   
    20     9    16 1   
    21     9    28 1   
    22     9    29 1   
    23    10    14 ar  
    24    10    30 1   
    25    11    31 1   
    26    11    32 1   
    27    11    33 1   
    28    12    13 1   
    29    12    18 1   
    30    12    34 1   
    31    12    35 1   
    32    13    16 1   
    33    13    17 2   
    34    14    15 1   
    35    15    20 1   
    36    15    36 1   
    37    15    37 1   
    38    18    38 1   
    39    18    44 1   
    40    19    44 2   
    41    20    39 1   
    42    20    44 1   
    43    22    40 1   
    44    41    43 1   
    45    42    43 1   
@<TRIPOS>SUBSTRUCTURE
     1 4ZZ         1 TEMP              0 ****  ****    0 ROOT
