@<TRIPOS>MOLECULE
A00
   88    90     1     0     0
SMALL
abcg2


@<TRIPOS>ATOM
      1 C3          -4.7370     1.5160     1.6840 c3         1 A00       0.157600
      2 C1          -2.3900     0.5720     1.5120 c3         1 A00      -0.084400
      3 C2          -1.5390    -0.6590     1.2210 c3         1 A00      -0.076400
      4 C10         -6.3480    -1.0500    -0.0390 ca         1 A00      -0.351500
      5 C4          -3.1410     0.9240    -1.3300 c3         1 A00       0.231800
      6 C5          -3.4930     2.3730    -1.6620 c3         1 A00      -0.069700
      7 C6          -2.5480     2.8590    -2.7550 c3         1 A00      -0.085600
      8 C7          -4.9480     2.5330    -2.0740 c3         1 A00      -0.085600
      9 C12         -8.5590    -0.1190     0.0930 ca         1 A00      -0.222500
     10 C11         -7.3300    -0.1870    -0.5240 ca         1 A00       0.038500
     11 O26          6.0410    -2.0970    -1.4370 o          1 A00      -0.521000
     12 O25          7.1490    -3.2080     0.1710 os         1 A00      -0.466100
     13 C27          7.9320    -3.8600    -0.8220 c3         1 A00       0.172900
     14 N22          5.6030    -1.7730     0.7900 ns         1 A00      -0.493900
     15 C21          4.4890    -0.8590     0.7470 c3         1 A00       0.073700
     16 C28          4.6170     0.2490    -0.3190 c3         1 A00       0.019900
     17 C30          3.4220     1.1820    -0.2540 ca         1 A00      -0.074800
     18 C40          2.4970     1.1860    -1.2930 ca         1 A00      -0.099500
     19 C39          1.3850     2.0180    -1.2570 ca         1 A00      -0.112500
     20 C38          1.1810     2.8600    -0.1740 ca         1 A00      -0.109000
     21 C37          2.0990     2.8640     0.8700 ca         1 A00      -0.112500
     22 C36          3.2100     2.0350     0.8280 ca         1 A00      -0.099500
     23 C29          5.9240     1.0040    -0.2330 ca         1 A00      -0.074800
     24 C35          6.5090     1.4550    -1.4140 ca         1 A00      -0.099500
     25 C34          7.6830     2.1950    -1.3970 ca         1 A00      -0.112500
     26 C33          8.2990     2.4940    -0.1890 ca         1 A00      -0.109000
     27 C32          7.7300     2.0430     0.9950 ca         1 A00      -0.112500
     28 C31          6.5540     1.3040     0.9720 ca         1 A00      -0.099500
     29 C20          3.1650    -1.6000     0.5360 c          1 A00       0.574100
     30 O23          3.0260    -2.3980    -0.3780 o          1 A00      -0.575100
     31 N19          2.2020    -1.2750     1.4060 ns         1 A00      -0.500900
     32 C18          0.8040    -1.6180     1.2440 c3         1 A00       0.099000
     33 C17         -0.0690    -0.4010     1.5090 c3         1 A00      -0.102400
     34 C           -3.8490     0.4290     1.0910 c3         1 A00       0.243500
     35 O           -4.2080     2.7970     1.4460 oh         1 A00      -0.657000
     36 N           -4.0280     0.2700    -0.3660 n3         1 A00      -0.773500
     37 S           -4.7880    -1.1230    -0.8390 sy         1 A00       1.174600
     38 O8          -4.0980    -2.3090    -0.3340 o          1 A00      -0.549000
     39 O9          -4.9920    -1.0340    -2.2810 o          1 A00      -0.549000
     40 C15         -6.6210    -1.8580     1.0600 ca         1 A00       0.038500
     41 C14         -7.8510    -1.7920     1.6810 ca         1 A00      -0.222500
     42 C13         -8.8460    -0.9160     1.2170 ca         1 A00       0.375000
     43 N16        -10.0390    -0.8140     1.8540 nv         1 A00      -1.100000
     44 H31A        -5.7470     1.4090     1.2730 h1         1 A00       0.027200
     45 H32A        -4.8080     1.3180     2.7630 h1         1 A00       0.027200
     46 H11A        -2.3810     0.7580     2.5900 hc         1 A00       0.054700
     47 H12A        -1.9390     1.4600     1.0620 hc         1 A00       0.054700
     48 H21A        -1.9020    -1.5010     1.8180 hc         1 A00       0.051200
     49 H22         -1.6500    -0.9650     0.1770 hc         1 A00       0.051200
     50 H41         -3.1520     0.3490    -2.2550 h1         1 A00       0.054700
     51 H42         -2.1090     0.8760    -0.9740 h1         1 A00       0.054700
     52 H5          -3.3280     2.9800    -0.7710 hc         1 A00       0.065700
     53 H61         -2.6880     2.2970    -3.6820 hc         1 A00       0.032867
     54 H62         -2.7170     3.9130    -2.9780 hc         1 A00       0.032867
     55 H63         -1.5010     2.7520    -2.4600 hc         1 A00       0.032867
     56 H71         -5.1990     1.8940    -2.9240 hc         1 A00       0.032867
     57 H72         -5.6200     2.2760    -1.2550 hc         1 A00       0.032867
     58 H73         -5.1570     3.5650    -2.3590 hc         1 A00       0.032867
     59 H12         -9.3140     0.5530    -0.2950 ha         1 A00       0.116000
     60 H11         -7.1430     0.4360    -1.3890 ha         1 A00       0.133500
     61 H271         7.3170    -4.4590    -1.4940 h1         1 A00       0.046700
     62 H272         8.5150    -3.1500    -1.4090 h1         1 A00       0.046700
     63 H273         8.6100    -4.5150    -0.2820 h1         1 A00       0.046700
     64 HN22         5.8680    -2.0980     1.7050 hn         1 A00       0.325500
     65 H21          4.4730    -0.3860     1.7320 h1         1 A00       0.050700
     66 H28          4.5870    -0.2330    -1.2960 hc         1 A00       0.107700
     67 H40          2.6450     0.5290    -2.1420 ha         1 A00       0.114000
     68 H39          0.6800     2.0030    -2.0790 ha         1 A00       0.112500
     69 H38          0.3160     3.5100    -0.1410 ha         1 A00       0.113000
     70 H37          1.9500     3.5180     1.7200 ha         1 A00       0.112500
     71 H36          3.9150     2.0600     1.6500 ha         1 A00       0.114000
     72 H35          6.0390     1.2230    -2.3630 ha         1 A00       0.114000
     73 H34          8.1190     2.5320    -2.3290 ha         1 A00       0.112500
     74 H33          9.2150     3.0690    -0.1690 ha         1 A00       0.113000
     75 H32          8.2040     2.2610     1.9430 ha         1 A00       0.112500
     76 H31          6.1440     0.9610     1.9130 ha         1 A00       0.114000
     77 HN19         2.4160    -0.6030     2.1260 hn         1 A00       0.305500
     78 H181         0.6560    -1.9740     0.2240 h1         1 A00       0.060700
     79 H182         0.5300    -2.4380     1.9140 h1         1 A00       0.060700
     80 H171         0.2850     0.4270     0.8870 hc         1 A00       0.044200
     81 H172         0.0550    -0.0820     2.5500 hc         1 A00       0.044200
     82 H           -4.2050    -0.4910     1.5650 h1         1 A00       0.048700
     83 HO          -4.8930     3.4460     1.6290 ho         1 A00       0.444000
     84 H15         -5.8760    -2.5430     1.4400 ha         1 A00       0.133500
     85 H14         -8.0480    -2.4240     2.5380 ha         1 A00       0.116000
     86 H161       -10.7990    -0.3460     1.3910 hn         1 A00       0.476500
     87 H162       -10.3140    -1.5410     2.4910 hn         1 A00       0.476500
     88 C24          6.2300    -2.3350    -0.2640 c          1 A00       0.651100
@<TRIPOS>BOND
     1     1    34 1   
     2     1    35 1   
     3     1    44 1   
     4     1    45 1   
     5     2     3 1   
     6     2    34 1   
     7     2    46 1   
     8     2    47 1   
     9     3    33 1   
    10     3    48 1   
    11     3    49 1   
    12     4    10 ar  
    13     4    37 1   
    14     4    40 ar  
    15     5     6 1   
    16     5    36 1   
    17     5    50 1   
    18     5    51 1   
    19     6     7 1   
    20     6     8 1   
    21     6    52 1   
    22     7    53 1   
    23     7    54 1   
    24     7    55 1   
    25     8    56 1   
    26     8    57 1   
    27     8    58 1   
    28     9    10 ar  
    29     9    42 ar  
    30     9    59 1   
    31    10    60 1   
    32    11    88 2   
    33    12    13 1   
    34    12    88 1   
    35    13    61 1   
    36    13    62 1   
    37    13    63 1   
    38    14    15 1   
    39    14    64 1   
    40    14    88 1   
    41    15    16 1   
    42    15    29 1   
    43    15    65 1   
    44    16    17 1   
    45    16    23 1   
    46    16    66 1   
    47    17    18 ar  
    48    17    22 ar  
    49    18    19 ar  
    50    18    67 1   
    51    19    20 ar  
    52    19    68 1   
    53    20    21 ar  
    54    20    69 1   
    55    21    22 ar  
    56    21    70 1   
    57    22    71 1   
    58    23    24 ar  
    59    23    28 ar  
    60    24    25 ar  
    61    24    72 1   
    62    25    26 ar  
    63    25    73 1   
    64    26    27 ar  
    65    26    74 1   
    66    27    28 ar  
    67    27    75 1   
    68    28    76 1   
    69    29    30 2   
    70    29    31 1   
    71    31    32 1   
    72    31    77 1   
    73    32    33 1   
    74    32    78 1   
    75    32    79 1   
    76    33    80 1   
    77    33    81 1   
    78    34    36 1   
    79    34    82 1   
    80    35    83 1   
    81    36    37 1   
    82    37    38 2   
    83    37    39 2   
    84    40    41 ar  
    85    40    84 1   
    86    41    42 ar  
    87    41    85 1   
    88    42    43 1   
    89    43    86 1   
    90    43    87 1   
@<TRIPOS>SUBSTRUCTURE
     1 A00         1 TEMP              0 ****  ****    0 ROOT
