@<TRIPOS>MOLECULE
A00
   88    90     1     0     0
SMALL
No Charge or Current Charge


@<TRIPOS>ATOM
      1 C3          -5.0160     2.0650     0.6020 c3         1 A00       0.157600
      2 C1          -2.6290     1.0360     0.4070 c3         1 A00      -0.084400
      3 C2          -1.7790    -0.2580     0.4520 c3         1 A00      -0.076400
      4 C10         -6.3600    -1.2860     0.3450 ca         1 A00      -0.351500
      5 C4          -3.8190     0.5120    -2.3490 c3         1 A00       0.231800
      6 C5          -3.9550     1.9630    -2.8790 c3         1 A00      -0.069700
      7 C6          -3.0800     2.1750    -4.1360 c3         1 A00      -0.085600
      8 C7          -5.4270     2.3510    -3.1610 c3         1 A00      -0.085600
      9 C12         -8.4220    -0.4200     1.2970 ca         1 A00      -0.222500
     10 C11         -7.5300    -0.5160     0.2160 ca         1 A00       0.038500
     11 O26          5.5070    -1.8080    -1.7890 o          1 A00      -0.521000
     12 O25          7.0050    -3.1700    -0.6980 os         1 A00      -0.466100
     13 C27          7.6140    -3.5810    -1.9350 c3         1 A00       0.172900
     14 N22          5.5450    -2.0180     0.5080 ns         1 A00      -0.493900
     15 C21          4.4590    -1.0770     0.8860 c3         1 A00       0.073700
     16 C28          4.6530     0.3640     0.2950 c3         1 A00       0.019900
     17 C30          3.7330     1.4090     0.9380 ca         1 A00      -0.074800
     18 C40          2.8550     2.1620     0.1300 ca         1 A00      -0.099500
     19 C39          1.9730     3.0910     0.7070 ca         1 A00      -0.112500
     20 C38          1.9620     3.2810     2.0980 ca         1 A00      -0.109000
     21 C37          2.8380     2.5440     2.9110 ca         1 A00      -0.112500
     22 C36          3.7200     1.6140     2.3350 ca         1 A00      -0.099500
     23 C29          6.1050     0.8640     0.3370 ca         1 A00      -0.074800
     24 C35          6.6370     1.5430    -0.7800 ca         1 A00      -0.099500
     25 C34          7.9610     2.0140    -0.7650 ca         1 A00      -0.112500
     26 C33          8.7660     1.8180     0.3680 ca         1 A00      -0.109000
     27 C32          8.2450     1.1510     1.4880 ca         1 A00      -0.112500
     28 C31          6.9210     0.6780     1.4750 ca         1 A00      -0.099500
     29 C20          3.0520    -1.6880     0.5660 c          1 A00       0.574100
     30 O23          2.8890    -2.7610    -0.0030 o          1 A00      -0.575100
     31 N19          1.9750    -0.9350     0.9890 ns         1 A00      -0.500900
     32 C18          0.5710    -1.2610     0.7480 c3         1 A00       0.099000
     33 C17         -0.2820     0.0210     0.7030 c3         1 A00      -0.102400
     34 C           -4.1590     0.8140     0.2000 c3         1 A00       0.243500
     35 O           -4.4830     3.3190     0.1340 oh         1 A00      -0.657000
     36 N           -4.5690     0.1870    -1.1050 n3         1 A00      -0.773500
     37 S           -5.2140    -1.3890    -1.0360 sy         1 A00       1.174600
     38 O8          -4.1160    -2.3070    -0.7230 o          1 A00      -0.549000
     39 O9          -6.0380    -1.5370    -2.2410 o          1 A00      -0.549000
     40 C15         -6.0860    -1.9600     1.5510 ca         1 A00       0.038500
     41 C14         -6.9870    -1.8560     2.6240 ca         1 A00      -0.222500
     42 C13         -8.1500    -1.0890     2.4950 ca         1 A00       0.375000
     43 N16         -9.0200    -0.9930     3.5400 nv         1 A00      -1.100000
     44 H31A        -6.0420     1.9260     0.2370 h1         1 A00       0.027200
     45 H32A        -5.0720     2.0920     1.6980 h1         1 A00       0.027200
     46 H11A        -2.4880     1.5620     1.3590 hc         1 A00       0.054700
     47 H12A        -2.2380     1.7060    -0.3670 hc         1 A00       0.054700
     48 H21A        -2.1620    -0.9130     1.2440 hc         1 A00       0.051200
     49 H22         -1.8800    -0.8070    -0.4910 hc         1 A00       0.051200
     50 H41         -4.1580    -0.1380    -3.1670 h1         1 A00       0.054700
     51 H42         -2.7540     0.2830    -2.2210 h1         1 A00       0.054700
     52 H5          -3.5640     2.6420    -2.1180 hc         1 A00       0.065700
     53 H61         -3.4090     1.5260    -4.9570 hc         1 A00       0.032867
     54 H62         -3.1370     3.2160    -4.4770 hc         1 A00       0.032867
     55 H63         -2.0290     1.9480    -3.9190 hc         1 A00       0.032867
     56 H71         -5.8600     1.7010    -3.9310 hc         1 A00       0.032867
     57 H72         -6.0390     2.2620    -2.2560 hc         1 A00       0.032867
     58 H73         -5.4940     3.3880    -3.5100 hc         1 A00       0.032867
     59 H12         -9.3230     0.1780     1.1970 ha         1 A00       0.116000
     60 H11         -7.7460     0.0120    -0.7120 ha         1 A00       0.133500
     61 H271         6.8810    -4.0700    -2.5890 h1         1 A00       0.046700
     62 H272         8.0360    -2.7190    -2.4690 h1         1 A00       0.046700
     63 H273         8.4270    -4.2920    -1.7430 h1         1 A00       0.046700
     64 HN22         6.0400    -2.5120     1.2390 hn         1 A00       0.325500
     65 H21          4.4990    -0.9970     1.9790 h1         1 A00       0.050700
     66 H28          4.3700     0.2800    -0.7620 hc         1 A00       0.107700
     67 H40          2.8460     2.0230    -0.9490 ha         1 A00       0.114000
     68 H39          1.2960     3.6620     0.0760 ha         1 A00       0.112500
     69 H38          1.2780     3.9990     2.5450 ha         1 A00       0.113000
     70 H37          2.8330     2.6930     3.9880 ha         1 A00       0.112500
     71 H36          4.3900     1.0540     2.9820 ha         1 A00       0.114000
     72 H35          6.0250     1.7050    -1.6640 ha         1 A00       0.114000
     73 H34          8.3620     2.5340    -1.6330 ha         1 A00       0.112500
     74 H33          9.7910     2.1830     0.3790 ha         1 A00       0.113000
     75 H32          8.8660     1.0000     2.3680 ha         1 A00       0.112500
     76 H31          6.5360     0.1660     2.3520 ha         1 A00       0.114000
     77 HN19         2.1870    -0.0540     1.4420 hn         1 A00       0.305500
     78 H181         0.4770    -1.7950    -0.2080 h1         1 A00       0.060700
     79 H182         0.2150    -1.9200     1.5510 h1         1 A00       0.060700
     80 H171         0.1000     0.6760    -0.0900 hc         1 A00       0.044200
     81 H172        -0.1680     0.5630     1.6500 hc         1 A00       0.044200
     82 H           -4.4020     0.1030     0.9980 h1         1 A00       0.048700
     83 HO          -5.1260     4.0160     0.3890 ho         1 A00       0.444000
     84 H15         -5.1830    -2.5590     1.6650 ha         1 A00       0.133500
     85 H14         -6.7750    -2.3740     3.5540 ha         1 A00       0.116000
     86 H161        -9.9460    -0.6030     3.3770 hn         1 A00       0.476500
     87 H162        -8.9220    -1.6290     4.3290 hn         1 A00       0.476500
     88 C24          5.9750    -2.2810    -0.7650 c          1 A00       0.651100
@<TRIPOS>BOND
     1     1    34 1   
     2     1    35 1   
     3     1    44 1   
     4     1    45 1   
     5     2     3 1   
     6     2    34 1   
     7     2    46 1   
     8     2    47 1   
     9     3    33 1   
    10     3    48 1   
    11     3    49 1   
    12     4    10 ar  
    13     4    37 1   
    14     4    40 ar  
    15     5     6 1   
    16     5    36 1   
    17     5    50 1   
    18     5    51 1   
    19     6     7 1   
    20     6     8 1   
    21     6    52 1   
    22     7    53 1   
    23     7    54 1   
    24     7    55 1   
    25     8    56 1   
    26     8    57 1   
    27     8    58 1   
    28     9    10 ar  
    29     9    42 ar  
    30     9    59 1   
    31    10    60 1   
    32    11    88 2   
    33    12    13 1   
    34    12    88 1   
    35    13    61 1   
    36    13    62 1   
    37    13    63 1   
    38    14    15 1   
    39    14    64 1   
    40    14    88 1   
    41    15    16 1   
    42    15    29 1   
    43    15    65 1   
    44    16    17 1   
    45    16    23 1   
    46    16    66 1   
    47    17    18 ar  
    48    17    22 ar  
    49    18    19 ar  
    50    18    67 1   
    51    19    20 ar  
    52    19    68 1   
    53    20    21 ar  
    54    20    69 1   
    55    21    22 ar  
    56    21    70 1   
    57    22    71 1   
    58    23    24 ar  
    59    23    28 ar  
    60    24    25 ar  
    61    24    72 1   
    62    25    26 ar  
    63    25    73 1   
    64    26    27 ar  
    65    26    74 1   
    66    27    28 ar  
    67    27    75 1   
    68    28    76 1   
    69    29    30 2   
    70    29    31 1   
    71    31    32 1   
    72    31    77 1   
    73    32    33 1   
    74    32    78 1   
    75    32    79 1   
    76    33    80 1   
    77    33    81 1   
    78    34    36 1   
    79    34    82 1   
    80    35    83 1   
    81    36    37 1   
    82    37    38 2   
    83    37    39 2   
    84    40    41 ar  
    85    40    84 1   
    86    41    42 ar  
    87    41    85 1   
    88    42    43 1   
    89    43    86 1   
    90    43    87 1   
@<TRIPOS>SUBSTRUCTURE
     1 A00         1 TEMP              0 ****  ****    0 ROOT
