@<TRIPOS>MOLECULE
A02
  137   139     1     0     0
SMALL
bcc


@<TRIPOS>ATOM
      1 N1         -18.8630    -2.6840    -0.5600 nb         1 A02      -0.830000
      2 C2         -18.5280    -2.2190     0.6410 ca         1 A02       0.706900
      3 N3         -17.4480    -1.5390     0.9860 nb         1 A02      -0.751000
      4 C4         -16.6460    -1.3320    -0.0570 ca         1 A02       0.443800
      5 C5         -16.8570    -1.7500    -1.3600 ca         1 A02      -0.227200
      6 C6         -18.0450    -2.4680    -1.5970 ca         1 A02       0.779200
      7 N6         -18.3760    -2.9390    -2.7990 nv         1 A02      -0.954500
      8 N7         -15.8240    -1.3560    -2.1690 nc         1 A02      -0.558100
      9 C8         -15.0120    -0.7180    -1.3750 cd         1 A02       0.419700
     10 N9         -15.4530    -0.6720    -0.0800 na         1 A02      -0.287000
     11 OAL        -11.9470     0.7180    -1.3000 o          1 A02      -0.587100
     12 OAN        -11.7770    -1.5440     2.3040 oh         1 A02      -0.595800
     13 OAO        -14.1460    -0.5400     3.2840 oh         1 A02      -0.578800
     14 OBV        -13.8180     0.8180     0.6520 os         1 A02      -0.362600
     15 CCC        -11.5760     0.4780    -0.1610 c          1 A02       0.662100
     16 CCK        -12.7600    -1.1390     1.3970 c5         1 A02       0.068100
     17 CCL        -14.1700    -1.0780     1.9920 c5         1 A02       0.080100
     18 CCM        -12.5430     0.3290     1.0050 c5         1 A02       0.053100
     19 CCN        -14.8290    -0.0470     1.0790 c5         1 A02       0.269800
     20 CBZ         -2.8690    -0.0070    -0.5870 c          1 A02       0.672100
     21 OAI         -2.6300    -0.9500     0.1560 o          1 A02      -0.614100
     22 CBG         -4.1880     0.1110    -1.3170 c3         1 A02      -0.156400
     23 CAX         -5.3620     0.1070    -0.3400 c3         1 A02      -0.069400
     24 CAU         -6.7050     0.2080    -1.0500 c3         1 A02      -0.074400
     25 CAW         -7.8730     0.2030    -0.0730 c3         1 A02      -0.095400
     26 CBD         -9.2120     0.3110    -0.7840 c3         1 A02       0.105000
     27 NBR        -10.2970     0.2950     0.1790 ns         1 A02      -0.570900
     28 NBS         -2.0040     1.0010    -0.8000 ns         1 A02      -0.560900
     29 CCI         -0.7340     1.1360    -0.1330 c3         1 A02       0.030700
     30 CCB          0.3710     1.3020    -1.1720 c          1 A02       0.656100
     31 OAK          0.1810     1.9330    -2.2030 o          1 A02      -0.607100
     32 CBJ         -0.7150     2.3430     0.8160 c3         1 A02      -0.088400
     33 CAZ         -1.8060     2.2950     1.8750 c3         1 A02      -0.074400
     34 CAS         -1.7470     3.4860     2.8220 c3         1 A02      -0.079400
     35 CAR         -2.8650     3.4660     3.8530 c3         1 A02       0.150800
     36 NAC         -2.7970     4.6300     4.7240 n8         1 A02      -0.885800
     37 CCA          9.0700     0.8780    -0.7150 c          1 A02       0.670100
     38 OAJ          9.0840     0.8880     0.5070 o          1 A02      -0.607100
     39 CBH          7.7950     1.0080    -1.5220 c3         1 A02      -0.158400
     40 CAY          6.5270     0.8230    -0.7040 c3         1 A02      -0.064400
     41 CAT          5.2750     0.9500    -1.5620 c3         1 A02      -0.075400
     42 CAV          3.9950     0.8000    -0.7510 c3         1 A02      -0.094400
     43 CBC          2.7550     0.9030    -1.6250 c3         1 A02       0.100000
     44 NBQ          1.5500     0.7700    -0.8320 ns         1 A02      -0.568900
     45 NBT         10.1860     0.7690    -1.4630 ns         1 A02      -0.569900
     46 CCJ         11.5200     0.6840    -0.9250 c3         1 A02       0.036700
     47 CBK         12.3290     1.9660    -1.1610 c3         1 A02      -0.090400
     48 CBB         11.7280     3.1820    -0.4710 c3         1 A02      -0.089400
     49 CBF         12.5680     4.4270    -0.7080 c3         1 A02       0.224800
     50 NBP         11.9610     5.5710    -0.0680 nu         1 A02      -0.847200
     51 CBX         12.6110     6.7740    -0.0290 c2         1 A02       0.793100
     52 NAB         11.8490     7.8060     0.4780 nv         1 A02      -0.956800
     53 NAE         13.8480     6.8550    -0.3620 n2         1 A02      -0.894100
     54 CCD         12.2500    -0.4770    -1.5850 c          1 A02       0.659100
     55 OAM         12.1320    -0.7100    -2.7790 o          1 A02      -0.608100
     56 N           13.0470    -1.1880    -0.7760 ns         1 A02      -0.544900
     57 CA          13.9780    -2.1530    -1.2980 c3         1 A02       0.028700
     58 CB          14.5870    -2.9790    -0.1630 c3         1 A02      -0.083400
     59 CG          13.5430    -3.7680     0.6170 c3         1 A02      -0.091400
     60 CD          14.1870    -4.6840     1.6460 c3         1 A02       0.219800
     61 NE          13.1700    -5.4150     2.3660 nu         1 A02      -0.844200
     62 CZ          13.4980    -6.1790     3.4560 c2         1 A02       0.785100
     63 NH1         12.4680    -6.9960     3.8760 nv         1 A02      -0.956800
     64 NH2         14.6690    -6.1160     3.9730 n2         1 A02      -0.889100
     65 C           15.0850    -1.4430    -2.0860 c          1 A02       0.658100
     66 O           15.3940    -0.2850    -1.8560 o          1 A02      -0.599100
     67 NAF         15.6940    -2.2100    -2.9980 nt         1 A02      -0.669000
     68 H2         -19.2350    -2.4290     1.4360 h5         1 A02       0.045100
     69 H1N6       -19.2490    -3.4190    -2.9330 hn         1 A02       0.451800
     70 H2N6       -17.8030    -2.7580    -3.6040 hn         1 A02       0.451800
     71 H8         -14.0850    -0.2550    -1.6750 h5         1 A02       0.098800
     72 HOAN       -11.6820    -2.5010     2.2590 ho         1 A02       0.426000
     73 HOAO       -13.3940    -0.9230     3.7520 ho         1 A02       0.425000
     74 HCK        -12.7700    -1.7730     0.5020 h1         1 A02       0.069700
     75 HCL        -14.6830    -2.0470     1.9590 h1         1 A02       0.083700
     76 HCM        -12.1560     0.8810     1.8710 h1         1 A02       0.089700
     77 HCN        -15.6080     0.5120     1.6040 h2         1 A02       0.128700
     78 H1BG        -4.2210     1.0120    -1.9340 hc         1 A02       0.062200
     79 H2BG        -4.2760    -0.7420    -1.9960 hc         1 A02       0.062200
     80 H1AX        -5.3330    -0.8050     0.2610 hc         1 A02       0.051700
     81 H2AX        -5.2570     0.9430     0.3590 hc         1 A02       0.051700
     82 H1AU        -6.7340     1.1230    -1.6510 hc         1 A02       0.044200
     83 H2AU        -6.8100    -0.6250    -1.7520 hc         1 A02       0.044200
     84 H1AW        -7.8470    -0.7160     0.5200 hc         1 A02       0.045700
     85 H2AW        -7.7660     1.0350     0.6300 hc         1 A02       0.045700
     86 H1BD        -9.2530     1.2370    -1.3620 h1         1 A02       0.053700
     87 H2BD        -9.3260    -0.5140    -1.4940 h1         1 A02       0.053700
     88 HNBR       -10.0760     0.0600     1.1340 hn         1 A02       0.324500
     89 HNBS        -2.2730     1.7440    -1.4270 hn         1 A02       0.330500
     90 HCI         -0.5740     0.2280     0.4500 h1         1 A02       0.088700
     91 H1BJ         0.2660     2.3840     1.2980 hc         1 A02       0.052700
     92 H2BJ        -0.8100     3.2620     0.2290 hc         1 A02       0.052700
     93 H1AZ        -2.7870     2.2740     1.3890 hc         1 A02       0.044200
     94 H2AZ        -1.7270     1.3650     2.4470 hc         1 A02       0.044200
     95 H1AS        -0.7790     3.4990     3.3350 hc         1 A02       0.047200
     96 H2AS        -1.8060     4.4170     2.2490 hc         1 A02       0.047200
     97 H1AR        -3.8270     3.4840     3.3330 h1         1 A02       0.026200
     98 H2AR        -2.8300     2.5090     4.3960 h1         1 A02       0.026200
     99 H1AC        -3.5750     4.6140     5.3710 hn         1 A02       0.337300
    100 H2AC        -1.9650     4.5680     5.2990 hn         1 A02       0.337300
    101 H1BH         7.7960     2.0000    -1.9890 hc         1 A02       0.058700
    102 H2BH         7.8190     0.2950    -2.3510 hc         1 A02       0.058700
    103 H1AY         6.5370    -0.1580    -0.2210 hc         1 A02       0.055700
    104 H2AY         6.4930     1.5620     0.1000 hc         1 A02       0.055700
    105 H1AT         5.2740     1.9220    -2.0660 hc         1 A02       0.041200
    106 H2AT         5.2970     0.1950    -2.3560 hc         1 A02       0.041200
    107 H1AV         4.0010    -0.1660    -0.2340 hc         1 A02       0.046200
    108 H2AV         3.9560     1.5710     0.0240 hc         1 A02       0.046200
    109 H1BC         2.7350     1.8700    -2.1290 h1         1 A02       0.054700
    110 H2BC         2.7840     0.1370    -2.4060 h1         1 A02       0.054700
    111 HNBQ         1.5980     0.1960    -0.0050 hn         1 A02       0.315500
    112 HNBT        10.0950     0.7620    -2.4670 hn         1 A02       0.329500
    113 HCJ         11.4320     0.5100     0.1480 h1         1 A02       0.089700
    114 H1BK        13.3490     1.8020    -0.8010 hc         1 A02       0.064200
    115 H2BK        12.4050     2.1450    -2.2370 hc         1 A02       0.064200
    116 H1BB        10.7130     3.3520    -0.8440 hc         1 A02       0.047700
    117 H2BB        11.6460     2.9980     0.6040 hc         1 A02       0.047700
    118 H1BF        13.5670     4.2850    -0.2950 h1         1 A02       0.053700
    119 H2BF        12.6970     4.5880    -1.7860 h1         1 A02       0.053700
    120 HNBP        10.9550     5.6070    -0.1230 hn         1 A02       0.406800
    121 H1AB        10.8480     7.7290     0.3810 hn         1 A02       0.394800
    122 H2AB        12.1750     8.7310     0.2470 hn         1 A02       0.394800
    123 H1AE        14.1910     7.7980    -0.2170 hn         1 A02       0.377400
    124 HN          13.1650    -0.8830     0.1780 hn         1 A02       0.327500
    125 HA          13.4430    -2.8310    -1.9690 h1         1 A02       0.078700
    126 H1B         15.3140    -3.6680    -0.5980 hc         1 A02       0.058200
    127 H2B         15.1460    -2.3210     0.5090 hc         1 A02       0.058200
    128 H1G         12.8530    -3.0910     1.1270 hc         1 A02       0.048700
    129 H2G         12.9450    -4.3600    -0.0830 hc         1 A02       0.048700
    130 H1D         14.8980    -5.3580     1.1500 h1         1 A02       0.052700
    131 H2D         14.7640    -4.0950     2.3600 h1         1 A02       0.052700
    132 HNE         12.4370    -5.7950     1.7850 hn         1 A02       0.410800
    133 H1H1        11.5340    -6.6450     3.7270 hn         1 A02       0.397800
    134 H2H1        12.5770    -7.3800     4.8010 hn         1 A02       0.397800
    135 H1H2        14.7150    -6.6790     4.8140 hn         1 A02       0.378400
    136 H1AF        15.3920    -3.1500    -3.1900 hn         1 A02       0.316000
    137 H2AF        16.4750    -1.8590    -3.5270 hn         1 A02       0.316000
@<TRIPOS>BOND
     1     1     2 ar  
     2     1     6 ar  
     3     2     3 ar  
     4     2    68 1   
     5     3     4 ar  
     6     4     5 ar  
     7     4    10 1   
     8     5     6 ar  
     9     5     8 1   
    10     6     7 1   
    11     7    69 1   
    12     7    70 1   
    13     8     9 2   
    14     9    10 1   
    15     9    71 1   
    16    10    19 1   
    17    11    15 2   
    18    12    16 1   
    19    12    72 1   
    20    13    17 1   
    21    13    73 1   
    22    14    18 1   
    23    14    19 1   
    24    15    18 1   
    25    15    27 1   
    26    16    17 1   
    27    16    18 1   
    28    16    74 1   
    29    17    19 1   
    30    17    75 1   
    31    18    76 1   
    32    19    77 1   
    33    20    21 2   
    34    20    22 1   
    35    20    28 1   
    36    22    23 1   
    37    22    78 1   
    38    22    79 1   
    39    23    24 1   
    40    23    80 1   
    41    23    81 1   
    42    24    25 1   
    43    24    82 1   
    44    24    83 1   
    45    25    26 1   
    46    25    84 1   
    47    25    85 1   
    48    26    27 1   
    49    26    86 1   
    50    26    87 1   
    51    27    88 1   
    52    28    29 1   
    53    28    89 1   
    54    29    30 1   
    55    29    32 1   
    56    29    90 1   
    57    30    31 2   
    58    30    44 1   
    59    32    33 1   
    60    32    91 1   
    61    32    92 1   
    62    33    34 1   
    63    33    93 1   
    64    33    94 1   
    65    34    35 1   
    66    34    95 1   
    67    34    96 1   
    68    35    36 1   
    69    35    97 1   
    70    35    98 1   
    71    36    99 1   
    72    36   100 1   
    73    37    38 2   
    74    37    39 1   
    75    37    45 1   
    76    39    40 1   
    77    39   101 1   
    78    39   102 1   
    79    40    41 1   
    80    40   103 1   
    81    40   104 1   
    82    41    42 1   
    83    41   105 1   
    84    41   106 1   
    85    42    43 1   
    86    42   107 1   
    87    42   108 1   
    88    43    44 1   
    89    43   109 1   
    90    43   110 1   
    91    44   111 1   
    92    45    46 1   
    93    45   112 1   
    94    46    47 1   
    95    46    54 1   
    96    46   113 1   
    97    47    48 1   
    98    47   114 1   
    99    47   115 1   
   100    48    49 1   
   101    48   116 1   
   102    48   117 1   
   103    49    50 1   
   104    49   118 1   
   105    49   119 1   
   106    50    51 1   
   107    50   120 1   
   108    51    52 1   
   109    51    53 2   
   110    52   121 1   
   111    52   122 1   
   112    53   123 1   
   113    54    55 2   
   114    54    56 1   
   115    56    57 1   
   116    56   124 1   
   117    57    58 1   
   118    57    65 1   
   119    57   125 1   
   120    58    59 1   
   121    58   126 1   
   122    58   127 1   
   123    59    60 1   
   124    59   128 1   
   125    59   129 1   
   126    60    61 1   
   127    60   130 1   
   128    60   131 1   
   129    61    62 1   
   130    61   132 1   
   131    62    63 1   
   132    62    64 2   
   133    63   133 1   
   134    63   134 1   
   135    64   135 1   
   136    65    66 2   
   137    65    67 1   
   138    67   136 1   
   139    67   137 1   
@<TRIPOS>SUBSTRUCTURE
     1 A02         1 TEMP              0 ****  ****    0 ROOT
