@<TRIPOS>MOLECULE
A02
  137   139     1     0     0
SMALL
No Charge or Current Charge


@<TRIPOS>ATOM
      1 N1         -16.8010    -4.1990    -0.5100 nb         1 A02      -0.304000
      2 C2         -16.5530    -3.7570     0.7450 ca         1 A02       0.180900
      3 N3         -15.9360    -2.6010     1.0880 nb         1 A02      -0.225000
      4 C4         -15.5300    -1.8190     0.0670 ca         1 A02       0.115500
      5 C5         -15.7400    -2.1730    -1.2420 ca         1 A02      -0.096600
      6 C6         -16.3880    -3.3990    -1.5050 ca         1 A02       0.450900
      7 N6         -16.6460    -3.8360    -2.7670 nv         1 A02      -1.064900
      8 N7         -15.2730    -1.2150    -2.1340 nc         1 A02      -0.558100
      9 C8         -14.7770    -0.2780    -1.3030 cd         1 A02       0.419700
     10 N9         -14.8890    -0.6050     0.0630 na         1 A02      -0.316300
     11 OAL        -11.7790     1.1490    -1.4680 o          1 A02      -0.587100
     12 OAN        -11.1930    -0.6470     2.5840 oh         1 A02      -0.718000
     13 OAO        -13.5850     0.2670     3.5550 oh         1 A02      -0.701000
     14 OBV        -13.6450     1.3050     0.7390 os         1 A02      -0.409000
     15 CCC        -11.3960     0.9520    -0.3210 c          1 A02       0.595100
     16 CCK        -12.2540    -0.4640     1.6300 c5         1 A02       0.091300
     17 CCL        -13.6440    -0.4720     2.3220 c5         1 A02       0.103300
     18 CCM        -12.2470     0.9620     0.9870 c5         1 A02       0.076300
     19 CCN        -14.4940     0.2280     1.2070 c5         1 A02       0.322300
     20 CBZ         -2.6200    -0.4200    -0.9580 c          1 A02       0.605100
     21 OAI         -2.3310    -1.5230    -0.5180 o          1 A02      -0.614100
     22 CBG         -3.9500    -0.1370    -1.6630 c3         1 A02      -0.156400
     23 CAX         -5.1160    -0.0440    -0.6500 c3         1 A02      -0.069400
     24 CAU         -6.4750     0.2550    -1.3200 c3         1 A02      -0.074400
     25 CAW         -7.6400     0.3420    -0.3100 c3         1 A02      -0.095400
     26 CBD         -8.9920     0.6440    -0.9830 c3         1 A02       0.105000
     27 NBR        -10.0750     0.7130    -0.0040 ns         1 A02      -0.503900
     28 NBS         -1.7600     0.6530    -0.8880 ns         1 A02      -0.493900
     29 CCI         -0.4270     0.6420    -0.2390 c3         1 A02       0.030700
     30 CCB          0.5900     1.4630    -1.0860 c          1 A02       0.589100
     31 OAK          0.2570     2.2070    -2.0020 o          1 A02      -0.607100
     32 CBJ         -0.5060     1.1710     1.2200 c3         1 A02      -0.088400
     33 CAZ         -1.4330     0.3570     2.1550 c3         1 A02      -0.074400
     34 CAS         -1.4180     0.8660     3.6140 c3         1 A02      -0.079400
     35 CAR         -2.3500     0.0560     4.5380 c3         1 A02       0.150800
     36 NAC         -2.3160     0.5650     5.9210 n8         1 A02      -0.996200
     37 CCA          9.4220     2.5240    -0.6080 c          1 A02       0.603100
     38 OAJ          9.7090     3.0190     0.4730 o          1 A02      -0.607100
     39 CBH          8.1040     2.8270    -1.3280 c3         1 A02      -0.158400
     40 CAY          6.9100     2.1070    -0.6580 c3         1 A02      -0.064400
     41 CAT          5.5650     2.3940    -1.3610 c3         1 A02      -0.075400
     42 CAV          4.3680     1.6820    -0.6930 c3         1 A02      -0.094400
     43 CBC          3.0300     1.9740    -1.3970 c3         1 A02       0.100000
     44 NBQ          1.9140     1.2950    -0.7400 ns         1 A02      -0.501900
     45 NBT         10.2720     1.6770    -1.2820 ns         1 A02      -0.502900
     46 CCJ         11.6100     1.2490    -0.8080 c3         1 A02       0.036700
     47 CBK         12.7350     2.1230    -1.4310 c3         1 A02      -0.090400
     48 CBB         12.6510     3.6290    -1.0830 c3         1 A02      -0.089400
     49 CBF         13.8310     4.4430    -1.6540 c3         1 A02       0.224800
     50 NBP         13.6930     5.8630    -1.3020 nu         1 A02      -0.902400
     51 CBX         14.5580     6.7990    -1.6560 c2         1 A02       0.793100
     52 NAB         14.1290     7.9150    -1.1290 nv         1 A02      -1.067200
     53 NAE         15.6020     6.6080    -2.3080 n2         1 A02      -0.894100
     54 CCD         11.8300    -0.2620    -1.1150 c          1 A02       0.592100
     55 OAM         11.1130    -0.9030    -1.8750 o          1 A02      -0.608100
     56 N           12.9050    -0.8390    -0.4670 ns         1 A02      -0.477900
     57 CA          13.3280    -2.2530    -0.5990 c3         1 A02       0.028700
     58 CB          12.7580    -3.1360     0.5480 c3         1 A02      -0.083400
     59 CG          11.2120    -3.1510     0.6470 c3         1 A02      -0.091400
     60 CD          10.6930    -4.1010     1.7450 c3         1 A02       0.219800
     61 NE           9.2250    -4.0710     1.8000 nu         1 A02      -0.899400
     62 CZ           8.5020    -4.7840     2.6470 c2         1 A02       0.785100
     63 NH1          7.2520    -4.5320     2.3660 nv         1 A02      -1.067200
     64 NH2          8.9560    -5.5920     3.4810 n2         1 A02      -0.889100
     65 C           14.8820    -2.3410    -0.6920 c          1 A02       0.591100
     66 O           15.6260    -1.3800    -0.5590 o          1 A02      -0.599100
     67 NAF         15.4100    -3.5650    -0.9240 nt         1 A02      -0.602000
     68 H2         -16.8830    -4.3950     1.5630 h5         1 A02       0.045100
     69 H1N6       -17.3620    -4.5470    -2.8870 hn         1 A02       0.507000
     70 H2N6       -16.5490    -3.1550    -3.5170 hn         1 A02       0.507000
     71 H8         -14.3370     0.6610    -1.6210 h5         1 A02       0.098800
     72 HOAN       -11.0670    -1.6200     2.7130 ho         1 A02       0.525000
     73 HOAO       -12.6240     0.2480     3.7940 ho         1 A02       0.524000
     74 HCK        -12.2130    -1.2360     0.8470 h1         1 A02       0.069700
     75 HCL        -13.9890    -1.4980     2.5100 h1         1 A02       0.083700
     76 HCM        -11.8220     1.7090     1.6700 h1         1 A02       0.089700
     77 HCN        -15.4280     0.6270     1.6240 h2         1 A02       0.128700
     78 H1BG        -3.8900     0.8120    -2.2100 hc         1 A02       0.062200
     79 H2BG        -4.1590    -0.9560    -2.3600 hc         1 A02       0.062200
     80 H1AX        -5.1870    -0.9880    -0.0930 hc         1 A02       0.051700
     81 H2AX        -4.8940     0.7420     0.0840 hc         1 A02       0.051700
     82 H1AU        -6.4050     1.2010    -1.8710 hc         1 A02       0.044200
     83 H2AU        -6.6940    -0.5290    -2.0560 hc         1 A02       0.044200
     84 H1AW        -7.7160    -0.6060     0.2370 hc         1 A02       0.045700
     85 H2AW        -7.4230     1.1250     0.4270 hc         1 A02       0.045700
     86 H1BD        -8.9340     1.6030    -1.5150 h1         1 A02       0.053700
     87 H2BD        -9.2250    -0.1420    -1.7140 h1         1 A02       0.053700
     88 HNBR        -9.8680     0.5280     0.9730 hn         1 A02       0.324500
     89 HNBS        -2.0690     1.5130    -1.3270 hn         1 A02       0.330500
     90 HCI         -0.0500    -0.3890    -0.2190 h1         1 A02       0.088700
     91 H1BJ         0.5020     1.1770     1.6520 hc         1 A02       0.052700
     92 H2BJ        -0.8440     2.2160     1.2030 hc         1 A02       0.052700
     93 H1AZ        -2.4620     0.3980     1.7800 hc         1 A02       0.044200
     94 H2AZ        -1.1260    -0.6970     2.1380 hc         1 A02       0.044200
     95 H1AS        -0.3930     0.8190     4.0010 hc         1 A02       0.047200
     96 H2AS        -1.7220     1.9200     3.6290 hc         1 A02       0.047200
     97 H1AR        -3.3830     0.1150     4.1670 h1         1 A02       0.026200
     98 H2AR        -2.0420    -0.9990     4.5440 h1         1 A02       0.026200
     99 H1AC        -2.8990    -0.0390     6.5140 hn         1 A02       0.392500
    100 H2AC        -1.3710     0.4350     6.3020 hn         1 A02       0.392500
    101 H1BH         7.9260     3.9080    -1.2880 hc         1 A02       0.058700
    102 H2BH         8.1650     2.5010    -2.3730 hc         1 A02       0.058700
    103 H1AY         7.0950     1.0250    -0.6580 hc         1 A02       0.055700
    104 H2AY         6.8420     2.4200     0.3920 hc         1 A02       0.055700
    105 H1AT         5.3830     3.4760    -1.3640 hc         1 A02       0.041200
    106 H2AT         5.6310     2.0770    -2.4100 hc         1 A02       0.041200
    107 H1AV         4.5460     0.5990    -0.6920 hc         1 A02       0.046200
    108 H2AV         4.2990     1.9990     0.3550 hc         1 A02       0.046200
    109 H1BC         2.8410     3.0560    -1.3910 h1         1 A02       0.054700
    110 H2BC         3.0820     1.6400    -2.4420 h1         1 A02       0.054700
    111 HNBQ         2.1150     0.6600     0.0250 hn         1 A02       0.315500
    112 HNBT         9.9300     1.2900    -2.1540 hn         1 A02       0.329500
    113 HCJ         11.6490     1.3500     0.2850 h1         1 A02       0.089700
    114 H1BK        13.7080     1.7440    -1.0940 hc         1 A02       0.064200
    115 H2BK        12.7170     2.0040    -2.5220 hc         1 A02       0.064200
    116 H1BB        11.7160     4.0440    -1.4770 hc         1 A02       0.047700
    117 H2BB        12.6260     3.7460     0.0080 hc         1 A02       0.047700
    118 H1BF        14.7730     4.0440    -1.2530 h1         1 A02       0.053700
    119 H2BF        13.8530     4.3270    -2.7470 h1         1 A02       0.053700
    120 HNBP        13.2630     6.0660    -0.4100 hn         1 A02       0.462000
    121 H1AB        13.1230     7.9790    -1.1980 hn         1 A02       0.450000
    122 H2AB        14.6070     8.7350    -1.4750 hn         1 A02       0.450000
    123 H1AE        16.0910     7.5050    -2.3860 hn         1 A02       0.377400
    124 HN          13.4680    -0.2290     0.1160 hn         1 A02       0.327500
    125 HA          12.9490    -2.6450    -1.5520 h1         1 A02       0.078700
    126 H1B         13.1030    -4.1680     0.4120 hc         1 A02       0.058200
    127 H2B         13.1740    -2.7910     1.5030 hc         1 A02       0.058200
    128 H1G         10.8490    -2.1380     0.8590 hc         1 A02       0.048700
    129 H2G         10.7930    -3.4530    -0.3200 hc         1 A02       0.048700
    130 H1D         11.0410    -5.1220     1.5340 h1         1 A02       0.052700
    131 H2D         11.1120    -3.7960     2.7140 h1         1 A02       0.052700
    132 HNE          8.7440    -3.9310     0.9220 hn         1 A02       0.466000
    133 H1H1         7.1210    -3.5500     2.1670 hn         1 A02       0.453000
    134 H2H1         6.6030    -4.8910     3.0520 hn         1 A02       0.453000
    135 H1H2         8.1610    -6.0340     3.9530 hn         1 A02       0.378400
    136 H1AF        14.8070    -4.3660    -1.0410 hn         1 A02       0.316000
    137 H2AF        16.4120    -3.6640    -0.9890 hn         1 A02       0.316000
@<TRIPOS>BOND
     1     1     2 ar  
     2     1     6 ar  
     3     2     3 ar  
     4     2    68 1   
     5     3     4 ar  
     6     4     5 ar  
     7     4    10 1   
     8     5     6 ar  
     9     5     8 1   
    10     6     7 1   
    11     7    69 1   
    12     7    70 1   
    13     8     9 2   
    14     9    10 1   
    15     9    71 1   
    16    10    19 1   
    17    11    15 2   
    18    12    16 1   
    19    12    72 1   
    20    13    17 1   
    21    13    73 1   
    22    14    18 1   
    23    14    19 1   
    24    15    18 1   
    25    15    27 1   
    26    16    17 1   
    27    16    18 1   
    28    16    74 1   
    29    17    19 1   
    30    17    75 1   
    31    18    76 1   
    32    19    77 1   
    33    20    21 2   
    34    20    22 1   
    35    20    28 1   
    36    22    23 1   
    37    22    78 1   
    38    22    79 1   
    39    23    24 1   
    40    23    80 1   
    41    23    81 1   
    42    24    25 1   
    43    24    82 1   
    44    24    83 1   
    45    25    26 1   
    46    25    84 1   
    47    25    85 1   
    48    26    27 1   
    49    26    86 1   
    50    26    87 1   
    51    27    88 1   
    52    28    29 1   
    53    28    89 1   
    54    29    30 1   
    55    29    32 1   
    56    29    90 1   
    57    30    31 2   
    58    30    44 1   
    59    32    33 1   
    60    32    91 1   
    61    32    92 1   
    62    33    34 1   
    63    33    93 1   
    64    33    94 1   
    65    34    35 1   
    66    34    95 1   
    67    34    96 1   
    68    35    36 1   
    69    35    97 1   
    70    35    98 1   
    71    36    99 1   
    72    36   100 1   
    73    37    38 2   
    74    37    39 1   
    75    37    45 1   
    76    39    40 1   
    77    39   101 1   
    78    39   102 1   
    79    40    41 1   
    80    40   103 1   
    81    40   104 1   
    82    41    42 1   
    83    41   105 1   
    84    41   106 1   
    85    42    43 1   
    86    42   107 1   
    87    42   108 1   
    88    43    44 1   
    89    43   109 1   
    90    43   110 1   
    91    44   111 1   
    92    45    46 1   
    93    45   112 1   
    94    46    47 1   
    95    46    54 1   
    96    46   113 1   
    97    47    48 1   
    98    47   114 1   
    99    47   115 1   
   100    48    49 1   
   101    48   116 1   
   102    48   117 1   
   103    49    50 1   
   104    49   118 1   
   105    49   119 1   
   106    50    51 1   
   107    50   120 1   
   108    51    52 1   
   109    51    53 2   
   110    52   121 1   
   111    52   122 1   
   112    53   123 1   
   113    54    55 2   
   114    54    56 1   
   115    56    57 1   
   116    56   124 1   
   117    57    58 1   
   118    57    65 1   
   119    57   125 1   
   120    58    59 1   
   121    58   126 1   
   122    58   127 1   
   123    59    60 1   
   124    59   128 1   
   125    59   129 1   
   126    60    61 1   
   127    60   130 1   
   128    60   131 1   
   129    61    62 1   
   130    61   132 1   
   131    62    63 1   
   132    62    64 2   
   133    63   133 1   
   134    63   134 1   
   135    64   135 1   
   136    65    66 2   
   137    65    67 1   
   138    67   136 1   
   139    67   137 1   
@<TRIPOS>SUBSTRUCTURE
     1 A02         1 TEMP              0 ****  ****    0 ROOT
