@<TRIPOS>MOLECULE
A03
  126   128     1     0     0
SMALL
No Charge or Current Charge


@<TRIPOS>ATOM
      1 N1         -16.5940    -1.4880    -3.7500 nb         1 A03      -0.305000
      2 C2         -16.9490    -0.5260    -2.8660 ca         1 A03       0.179900
      3 N3         -16.1190     0.3340    -2.2290 nb         1 A03      -0.224000
      4 C4         -14.8060     0.2090    -2.5100 ca         1 A03       0.115500
      5 C5         -14.3430    -0.7290    -3.3990 ca         1 A03      -0.096600
      6 C6         -15.2820    -1.5860    -4.0120 ca         1 A03       0.450900
      7 N6         -14.9240    -2.5460    -4.9070 nv         1 A03      -1.065900
      8 N7         -12.9650    -0.6670    -3.5670 nc         1 A03      -0.559100
      9 C8         -12.6270     0.3440    -2.7430 cd         1 A03       0.420700
     10 N9         -13.7180     0.9080    -2.0500 na         1 A03      -0.315300
     11 OAL        -10.1940     0.3720    -0.4400 o          1 A03      -0.593100
     12 OAN        -13.5520     1.0460     2.4190 oh         1 A03      -0.716000
     13 OAO        -14.6600     3.0840     0.9540 oh         1 A03      -0.701000
     14 OBR        -12.3090     2.3200    -0.7580 os         1 A03      -0.411000
     15 CBY        -10.8420     0.7410     0.5320 c          1 A03       0.598100
     16 CCG        -13.3450     1.0140     0.9950 c5         1 A03       0.092300
     17 CCH        -14.4170     1.8540     0.2480 c5         1 A03       0.101300
     18 CCI        -12.0350     1.7470     0.5580 c5         1 A03       0.078300
     19 CCJ        -13.6840     2.0480    -1.1240 c5         1 A03       0.322300
     20 CBV         -3.1270    -0.1900     3.2920 c          1 A03       0.602100
     21 OAI         -2.8820     0.5910     4.2010 o          1 A03      -0.615100
     22 CBD         -4.4460    -0.9650     3.2070 c3         1 A03      -0.155400
     23 CAV         -5.6120    -0.0480     2.7670 c3         1 A03      -0.067400
     24 CAR         -6.9680    -0.7830     2.6910 c3         1 A03      -0.074400
     25 CAU         -8.1280     0.1420     2.2610 c3         1 A03      -0.095400
     26 CBA         -9.4870    -0.5840     2.1970 c3         1 A03       0.104000
     27 NBN        -10.5740     0.3210     1.8200 ns         1 A03      -0.499900
     28 N           -2.2210    -0.4620     2.2930 ns         1 A03      -0.499900
     29 CA          -0.8930     0.1750     2.1500 c3         1 A03       0.034700
     30 CB          -1.0360     1.6020     1.5690 c3         1 A03      -0.107100
     31 C            0.0520    -0.7120     1.2860 c          1 A03       0.591100
     32 O           -0.3340    -1.6890     0.6540 o          1 A03      -0.613100
     33 CBW          8.8970    -0.8270     0.3950 c          1 A03       0.602100
     34 OAJ          9.3580    -1.0540     1.5050 o          1 A03      -0.605100
     35 CBE          7.5450    -1.3850    -0.0620 c3         1 A03      -0.154400
     36 CAW          6.3730    -0.6420     0.6220 c3         1 A03      -0.068400
     37 CAS          4.9860    -1.1870     0.2170 c3         1 A03      -0.074400
     38 CAT          3.8270    -0.4650     0.9380 c3         1 A03      -0.094400
     39 CAZ          2.4400    -1.0160     0.5570 c3         1 A03       0.100000
     40 NBM          1.3750    -0.3240     1.2840 ns         1 A03      -0.499900
     41 NBP          9.5680    -0.0780    -0.5450 ns         1 A03      -0.487900
     42 CCF         10.8660     0.6020    -0.3250 c3         1 A03       0.038700
     43 CBG         10.6580     2.1000     0.0360 c3         1 A03      -0.087400
     44 CAY          9.8220     2.3430     1.3170 c3         1 A03      -0.092400
     45 CBC          9.7050     3.8360     1.6870 c3         1 A03       0.226800
     46 NBL          8.8950     3.9980     2.9020 nu         1 A03      -0.908400
     47 CBT          8.6270     5.1660     3.4610 c2         1 A03       0.795100
     48 NAC          7.9010     4.9080     4.5150 nv         1 A03      -1.069200
     49 NAE          9.0360     6.2710     3.0570 n2         1 A03      -0.893100
     50 CBZ         11.7840     0.4390    -1.5720 c          1 A03       0.592100
     51 OAM         11.3740     0.0500    -2.6590 o          1 A03      -0.597100
     52 NBQ         13.1100     0.7620    -1.3640 ns         1 A03      -0.481900
     53 CCE         14.1830     0.6760    -2.3830 c3         1 A03       0.033700
     54 CBF         14.9760    -0.6580    -2.2710 c3         1 A03      -0.086400
     55 CAX         14.1150    -1.9370    -2.4180 c3         1 A03      -0.091400
     56 CBB         14.9490    -3.2310    -2.3670 c3         1 A03       0.214800
     57 NBK         14.0820    -4.4060    -2.5210 nu         1 A03      -0.896400
     58 CBS         14.5620    -5.6240    -2.4630 c2         1 A03       0.789100
     59 NAB         14.8420    -5.8720    -3.7020 nv         1 A03      -1.070200
     60 NAD         13.9400    -6.4210    -1.7500 n2         1 A03      -0.897100
     61 CBU         15.1160     1.9240    -2.2890 c          1 A03       0.593100
     62 OAH         15.0250     2.7750    -1.4180 o          1 A03      -0.602100
     63 NAF         16.0760     2.0380    -3.2360 nt         1 A03      -0.602000
     64 H2         -18.0120    -0.4320    -2.6460 h5         1 A03       0.045100
     65 H1N6       -15.6430    -2.9160    -5.5230 hn         1 A03       0.507000
     66 H2N6       -13.9810    -2.4950    -5.2850 hn         1 A03       0.507000
     67 H8         -11.6210     0.7250    -2.6100 h5         1 A03       0.099800
     68 HOAN       -14.1940     0.3290     2.6470 ho         1 A03       0.524000
     69 HOAO       -14.3820     2.8830     1.8830 ho         1 A03       0.523000
     70 HCG        -13.3440    -0.0230     0.6230 h1         1 A03       0.070700
     71 HCH        -15.3530     1.2900     0.1320 h1         1 A03       0.082700
     72 HCI        -11.7830     2.5650     1.2460 h1         1 A03       0.086700
     73 HCJ        -14.1120     2.8960    -1.6750 h2         1 A03       0.127700
     74 H1BD        -4.3540    -1.7850     2.4840 hc         1 A03       0.060200
     75 H2BD        -4.6770    -1.3700     4.1990 hc         1 A03       0.060200
     76 H1AV        -5.6960     0.7900     3.4700 hc         1 A03       0.054700
     77 H2AV        -5.3790     0.3840     1.7840 hc         1 A03       0.054700
     78 H1AR        -6.8890    -1.6170     1.9820 hc         1 A03       0.042700
     79 H2AR        -7.1980    -1.2170     3.6720 hc         1 A03       0.042700
     80 H1AU        -8.2030     0.9790     2.9670 hc         1 A03       0.046700
     81 H2AU        -7.8990     0.5710     1.2780 hc         1 A03       0.046700
     82 H1BA        -9.4350    -1.4060     1.4710 h1         1 A03       0.054200
     83 H2BA        -9.7180    -1.0150     3.1810 h1         1 A03       0.054200
     84 HNBN       -11.2000     0.6600     2.5450 hn         1 A03       0.323500
     85 HN          -2.4960    -1.1530     1.6010 hn         1 A03       0.337500
     86 HA          -0.4340     0.2460     3.1450 h1         1 A03       0.079700
     87 H1B         -1.6810     2.2200     2.2050 hc         1 A03       0.049700
     88 H2B         -0.0600     2.0980     1.5010 hc         1 A03       0.049700
     89 H3B         -1.4740     1.5690     0.5650 hc         1 A03       0.049700
     90 H1BE         7.4410    -1.2790    -1.1490 hc         1 A03       0.060700
     91 H2BE         7.4930    -2.4450     0.2140 hc         1 A03       0.060700
     92 H1AW         6.4850    -0.7200     1.7110 hc         1 A03       0.052700
     93 H2AW         6.4290     0.4260     0.3730 hc         1 A03       0.052700
     94 H1AS         4.8580    -1.0820    -0.8680 hc         1 A03       0.042700
     95 H2AS         4.9380    -2.2590     0.4440 hc         1 A03       0.042700
     96 H1AT         3.9630    -0.5620     2.0230 hc         1 A03       0.045700
     97 H2AT         3.8650     0.6060     0.7030 hc         1 A03       0.045700
     98 H1AZ         2.2740    -0.8900    -0.5210 h1         1 A03       0.055700
     99 H2AZ         2.3940    -2.0880     0.7910 h1         1 A03       0.055700
    100 HNBM         1.6160     0.4920     1.8340 hn         1 A03       0.315500
    101 HNBP         9.1310     0.0110    -1.4550 hn         1 A03       0.319500
    102 HCF         11.3880     0.1110     0.5080 h1         1 A03       0.078700
    103 H1BG        11.6390     2.5760     0.1660 hc         1 A03       0.066200
    104 H2BG        10.1760     2.6080    -0.8090 hc         1 A03       0.066200
    105 H1AY         8.8120     1.9370     1.1780 hc         1 A03       0.044700
    106 H2AY        10.2790     1.7980     2.1530 hc         1 A03       0.044700
    107 H1BC        10.7110     4.2490     1.8450 h1         1 A03       0.054700
    108 H2BC         9.2430     4.3800     0.8510 h1         1 A03       0.054700
    109 HNBL         8.9620     3.2590     3.5880 hn         1 A03       0.462000
    110 H1AC         7.2530     4.1580     4.3240 hn         1 A03       0.451500
    111 H2AC         7.4600     5.7270     4.9100 hn         1 A03       0.451500
    112 H1AE         8.6990     6.9850     3.7110 hn         1 A03       0.379400
    113 HNBQ        13.3580     1.1080    -0.4440 hn         1 A03       0.322500
    114 HCE         13.7260     0.7190    -3.3800 h1         1 A03       0.079700
    115 H1BF        15.7560    -0.6790    -3.0420 hc         1 A03       0.055200
    116 H2BF        15.4930    -0.6840    -1.3030 hc         1 A03       0.055200
    117 H1AX        13.3670    -1.9690    -1.6170 hc         1 A03       0.056700
    118 H2AX        13.5700    -1.8970    -3.3700 hc         1 A03       0.056700
    119 H1BB        15.7030    -3.2090    -3.1660 h1         1 A03       0.036200
    120 H2BB        15.4780    -3.2830    -1.4050 h1         1 A03       0.036200
    121 HNBK        13.2540    -4.3830    -1.9390 hn         1 A03       0.485000
    122 H1AB        14.6960    -4.9990    -4.1850 hn         1 A03       0.454500
    123 H2AB        14.2630    -6.6100    -4.0700 hn         1 A03       0.454500
    124 H1AD        14.1820    -7.3640    -2.0730 hn         1 A03       0.380400
    125 H1AF        16.1590     1.3440    -3.9650 hn         1 A03       0.315500
    126 H2AF        16.7020     2.8290    -3.2090 hn         1 A03       0.315500
@<TRIPOS>BOND
     1     1     2 ar  
     2     1     6 ar  
     3     2     3 ar  
     4     2    64 1   
     5     3     4 ar  
     6     4     5 ar  
     7     4    10 1   
     8     5     6 ar  
     9     5     8 1   
    10     6     7 1   
    11     7    65 1   
    12     7    66 1   
    13     8     9 2   
    14     9    10 1   
    15     9    67 1   
    16    10    19 1   
    17    11    15 2   
    18    12    16 1   
    19    12    68 1   
    20    13    17 1   
    21    13    69 1   
    22    14    18 1   
    23    14    19 1   
    24    15    18 1   
    25    15    27 1   
    26    16    17 1   
    27    16    18 1   
    28    16    70 1   
    29    17    19 1   
    30    17    71 1   
    31    18    72 1   
    32    19    73 1   
    33    20    21 2   
    34    20    22 1   
    35    20    28 1   
    36    22    23 1   
    37    22    74 1   
    38    22    75 1   
    39    23    24 1   
    40    23    76 1   
    41    23    77 1   
    42    24    25 1   
    43    24    78 1   
    44    24    79 1   
    45    25    26 1   
    46    25    80 1   
    47    25    81 1   
    48    26    27 1   
    49    26    82 1   
    50    26    83 1   
    51    27    84 1   
    52    28    29 1   
    53    28    85 1   
    54    29    30 1   
    55    29    31 1   
    56    29    86 1   
    57    30    87 1   
    58    30    88 1   
    59    30    89 1   
    60    31    32 2   
    61    31    40 1   
    62    33    34 2   
    63    33    35 1   
    64    33    41 1   
    65    35    36 1   
    66    35    90 1   
    67    35    91 1   
    68    36    37 1   
    69    36    92 1   
    70    36    93 1   
    71    37    38 1   
    72    37    94 1   
    73    37    95 1   
    74    38    39 1   
    75    38    96 1   
    76    38    97 1   
    77    39    40 1   
    78    39    98 1   
    79    39    99 1   
    80    40   100 1   
    81    41    42 1   
    82    41   101 1   
    83    42    43 1   
    84    42    50 1   
    85    42   102 1   
    86    43    44 1   
    87    43   103 1   
    88    43   104 1   
    89    44    45 1   
    90    44   105 1   
    91    44   106 1   
    92    45    46 1   
    93    45   107 1   
    94    45   108 1   
    95    46    47 1   
    96    46   109 1   
    97    47    48 1   
    98    47    49 2   
    99    48   110 1   
   100    48   111 1   
   101    49   112 1   
   102    50    51 2   
   103    50    52 1   
   104    52    53 1   
   105    52   113 1   
   106    53    54 1   
   107    53    61 1   
   108    53   114 1   
   109    54    55 1   
   110    54   115 1   
   111    54   116 1   
   112    55    56 1   
   113    55   117 1   
   114    55   118 1   
   115    56    57 1   
   116    56   119 1   
   117    56   120 1   
   118    57    58 1   
   119    57   121 1   
   120    58    59 1   
   121    58    60 2   
   122    59   122 1   
   123    59   123 1   
   124    60   124 1   
   125    61    62 2   
   126    61    63 1   
   127    63   125 1   
   128    63   126 1   
@<TRIPOS>SUBSTRUCTURE
     1 A03         1 TEMP              0 ****  ****    0 ROOT
