@<TRIPOS>MOLECULE
A03
  126   128     1     0     0
SMALL
bcc


@<TRIPOS>ATOM
      1 N1         -19.6500    -0.7280    -0.8090 nb         1 A03      -0.831000
      2 C2         -19.2560    -0.6590     0.4600 ca         1 A03       0.705900
      3 N3         -18.0590    -0.3600     0.9330 nb         1 A03      -0.750000
      4 C4         -17.1940    -0.1070    -0.0480 ca         1 A03       0.443800
      5 C5         -17.4520    -0.1390    -1.4090 ca         1 A03      -0.227200
      6 C6         -18.7680    -0.4720    -1.7830 ca         1 A03       0.779200
      7 N6         -19.1600    -0.5440    -3.0550 nv         1 A03      -0.955500
      8 N7         -16.3270     0.1760    -2.1240 nc         1 A03      -0.559100
      9 C8         -15.4150     0.3910    -1.2200 cd         1 A03       0.420700
     10 N9         -15.8780     0.2330     0.0590 na         1 A03      -0.286000
     11 OAL        -12.1170     0.9380    -0.8860 o          1 A03      -0.593100
     12 OAN        -12.5490    -1.9840     2.0680 oh         1 A03      -0.593800
     13 OAO        -14.6890    -0.7760     3.3140 oh         1 A03      -0.578800
     14 OBR        -13.9780     1.0970     1.0940 os         1 A03      -0.364600
     15 CBY        -11.8200     0.4950     0.2140 c          1 A03       0.665100
     16 CCG        -13.3880    -1.1610     1.3140 c5         1 A03       0.069100
     17 CCH        -14.7770    -0.9510     1.9280 c5         1 A03       0.078100
     18 CCI        -12.8520     0.2760     1.3110 c5         1 A03       0.055100
     19 CCJ        -15.1660     0.3950     1.3190 c5         1 A03       0.269800
     20 CBV         -3.1330    -0.4470     0.0220 c          1 A03       0.669100
     21 OAI         -3.0360    -1.3160     0.8800 o          1 A03      -0.615100
     22 CBD         -4.4320    -0.1840    -0.7080 c3         1 A03      -0.155400
     23 CAV         -5.6380    -0.1870     0.2250 c3         1 A03      -0.067400
     24 CAR         -6.9490    -0.0120    -0.5290 c3         1 A03      -0.074400
     25 CAU         -8.1540    -0.0170     0.4020 c3         1 A03      -0.095400
     26 CBA         -9.4600     0.1460    -0.3570 c3         1 A03       0.104000
     27 NBN        -10.5850     0.1220     0.5570 ns         1 A03      -0.566900
     28 N           -2.0960     0.3180    -0.3550 ns         1 A03      -0.566900
     29 CA          -0.7730     0.1900     0.2050 c3         1 A03       0.034700
     30 CB          -0.6040     1.0150     1.4830 c3         1 A03      -0.107100
     31 C            0.2410     0.6500    -0.8390 c          1 A03       0.658100
     32 O           -0.0490     1.4880    -1.6830 o          1 A03      -0.613100
     33 CBW          8.9380     0.3560    -1.0250 c          1 A03       0.669100
     34 OAJ          9.1730    -0.7620    -0.5850 o          1 A03      -0.605100
     35 CBE          7.6380     0.6920    -1.7170 c3         1 A03      -0.154400
     36 CAW          6.4200     0.3800    -0.8520 c3         1 A03      -0.068400
     37 CAS          5.1150     0.5650    -1.6150 c3         1 A03      -0.074400
     38 CAT          3.8910     0.2990    -0.7500 c3         1 A03      -0.094400
     39 CAZ          2.5970     0.4330    -1.5360 c3         1 A03       0.100000
     40 NBM          1.4540     0.1060    -0.7080 ns         1 A03      -0.566900
     41 NBP          9.8250     1.3620    -0.9150 ns         1 A03      -0.554900
     42 CCF         11.1540     1.1430    -0.4120 c3         1 A03       0.038700
     43 CBG         11.8690     2.4780    -0.1910 c3         1 A03      -0.087400
     44 CAY         11.2230     3.3100     0.9090 c3         1 A03      -0.092400
     45 CBC         11.9760     4.6090     1.1510 c3         1 A03       0.226800
     46 NBL         11.3240     5.3700     2.1910 nu         1 A03      -0.853200
     47 CBT         11.8830     6.5190     2.6760 c2         1 A03       0.795100
     48 NAC         11.0870     7.1890     3.5820 nv         1 A03      -0.958800
     49 NAE         13.0800     6.8480     2.3500 n2         1 A03      -0.893100
     50 CBZ         11.9560     0.2850    -1.3890 c          1 A03       0.659100
     51 OAM         11.7460     0.2930    -2.5900 o          1 A03      -0.597100
     52 NBQ         12.9300    -0.4500    -0.8270 ns         1 A03      -0.548900
     53 CCE         13.9030    -1.1360    -1.6320 c3         1 A03       0.033700
     54 CBF         14.8200    -1.9880    -0.7530 c3         1 A03      -0.086400
     55 CAX         14.0750    -3.0700     0.0210 c3         1 A03      -0.091400
     56 CBB         15.0390    -3.9390     0.8130 c3         1 A03       0.214800
     57 NBK         14.3050    -4.9390     1.5660 nu         1 A03      -0.841200
     58 CBS         14.9180    -5.8140     2.4290 c2         1 A03       0.789100
     59 NAB         16.2230    -6.1160     2.1210 nv         1 A03      -0.959800
     60 NAD         14.2630    -6.2560     3.4410 n2         1 A03      -0.897100
     61 CBU         14.7470    -0.1270    -2.4190 c          1 A03       0.660100
     62 OAH         14.9730     0.9910    -1.9890 o          1 A03      -0.602100
     63 NAF         15.2420    -0.6000    -3.5700 nt         1 A03      -0.669000
     64 H2         -20.0210    -0.8780     1.1970 h5         1 A03       0.045100
     65 H1N6       -20.1110    -0.7750    -3.2820 hn         1 A03       0.451800
     66 H2N6       -18.5240    -0.3420    -3.8070 hn         1 A03       0.451800
     67 H8         -14.3930     0.6730    -1.4210 h5         1 A03       0.099800
     68 HOAN       -12.6810    -2.8990     1.7990 ho         1 A03       0.425000
     69 HOAO       -14.0600    -1.4230     3.6560 ho         1 A03       0.424000
     70 HCG        -13.4970    -1.5260     0.2850 h1         1 A03       0.070700
     71 HCH        -15.4830    -1.7450     1.6570 h1         1 A03       0.082700
     72 HCI        -12.4080     0.5000     2.2890 h1         1 A03       0.086700
     73 HCJ        -15.8200     0.9600     1.9890 h2         1 A03       0.127700
     74 H1BD        -4.3860     0.7550    -1.2630 hc         1 A03       0.060200
     75 H2BD        -4.5490    -0.9770    -1.4540 hc         1 A03       0.060200
     76 H1AV        -5.6620    -1.1250     0.7860 hc         1 A03       0.054700
     77 H2AV        -5.5320     0.6140     0.9630 hc         1 A03       0.054700
     78 H1AR        -6.9280     0.9250    -1.0950 hc         1 A03       0.042700
     79 H2AR        -7.0540    -0.8140    -1.2670 hc         1 A03       0.042700
     80 H1AU        -8.1730    -0.9550     0.9660 hc         1 A03       0.046700
     81 H2AU        -8.0560     0.7900     1.1340 hc         1 A03       0.046700
     82 H1BA        -9.4610     1.0950    -0.8980 h1         1 A03       0.054200
     83 H2BA        -9.5620    -0.6480    -1.1030 h1         1 A03       0.054200
     84 HNBN       -10.4320    -0.2630     1.4770 hn         1 A03       0.323500
     85 HN          -2.2360     1.0450    -1.0400 hn         1 A03       0.337500
     86 HA          -0.6000    -0.8620     0.4400 h1         1 A03       0.079700
     87 H1B         -1.3180     0.6850     2.2360 hc         1 A03       0.049700
     88 H2B          0.3990     0.8950     1.8940 hc         1 A03       0.049700
     89 H3B         -0.7730     2.0740     1.2880 hc         1 A03       0.049700
     90 H1BE         7.6160     1.7390    -2.0290 hc         1 A03       0.060700
     91 H2BE         7.6010     0.0910    -2.6300 hc         1 A03       0.060700
     92 H1AW         6.4840    -0.6470    -0.4850 hc         1 A03       0.052700
     93 H2AW         6.4260     1.0290     0.0290 hc         1 A03       0.052700
     94 H1AS         5.0650     1.5810    -2.0190 hc         1 A03       0.042700
     95 H2AS         5.1060    -0.1090    -2.4780 hc         1 A03       0.042700
     96 H1AT         3.9580    -0.7100    -0.3280 hc         1 A03       0.045700
     97 H2AT         3.8750     0.9920     0.0960 hc         1 A03       0.045700
     98 H1AZ         2.4820     1.4530    -1.9020 h1         1 A03       0.055700
     99 H2AZ         2.6240    -0.2220    -2.4130 h1         1 A03       0.055700
    100 HNBM         1.5720    -0.6390    -0.0380 hn         1 A03       0.315500
    101 HNBP         9.6270     2.2350    -1.3770 hn         1 A03       0.319500
    102 HCF         11.0910     0.6220     0.5480 h1         1 A03       0.078700
    103 H1BG        12.9110     2.2710     0.0670 hc         1 A03       0.066200
    104 H2BG        11.8900     3.0380    -1.1310 hc         1 A03       0.066200
    105 H1AY        10.1860     3.5360     0.6450 hc         1 A03       0.044700
    106 H2AY        11.1920     2.7280     1.8350 hc         1 A03       0.044700
    107 H1BC        12.9990     4.3950     1.4620 h1         1 A03       0.054700
    108 H2BC        12.0470     5.1780     0.2140 h1         1 A03       0.054700
    109 HNBL        10.3180     5.3270     2.1880 hn         1 A03       0.406800
    110 H1AC        10.0940     7.0190     3.5410 hn         1 A03       0.396300
    111 H2AC        11.2970     8.1680     3.6940 hn         1 A03       0.396300
    112 H1AE        13.3670     7.6800     2.8530 hn         1 A03       0.379400
    113 HNBQ        13.1140    -0.3420     0.1590 hn         1 A03       0.322500
    114 HCE         13.3830    -1.7950    -2.3340 h1         1 A03       0.079700
    115 H1BF        15.5690    -2.4550    -1.3970 hc         1 A03       0.055200
    116 H2BF        15.3670    -1.3380    -0.0630 hc         1 A03       0.055200
    117 H1AX        13.3550    -2.6150     0.7070 hc         1 A03       0.056700
    118 H2AX        13.5030    -3.6940    -0.6700 hc         1 A03       0.056700
    119 H1BB        15.7190    -4.4270     0.1110 h1         1 A03       0.036200
    120 H2BB        15.6530    -3.3030     1.4630 h1         1 A03       0.036200
    121 HNBK        13.4230    -4.6170     1.9350 hn         1 A03       0.429800
    122 H1AB        16.4880    -6.0980     1.1490 hn         1 A03       0.399300
    123 H2AB        16.6040    -6.9160     2.6000 hn         1 A03       0.399300
    124 H1AD        14.8000    -6.9550     3.9420 hn         1 A03       0.380400
    125 H1AF        15.0110    -1.5160    -3.9140 hn         1 A03       0.315500
    126 H2AF        15.8700    -0.0430    -4.1250 hn         1 A03       0.315500
@<TRIPOS>BOND
     1     1     2 ar  
     2     1     6 ar  
     3     2     3 ar  
     4     2    64 1   
     5     3     4 ar  
     6     4     5 ar  
     7     4    10 1   
     8     5     6 ar  
     9     5     8 1   
    10     6     7 1   
    11     7    65 1   
    12     7    66 1   
    13     8     9 2   
    14     9    10 1   
    15     9    67 1   
    16    10    19 1   
    17    11    15 2   
    18    12    16 1   
    19    12    68 1   
    20    13    17 1   
    21    13    69 1   
    22    14    18 1   
    23    14    19 1   
    24    15    18 1   
    25    15    27 1   
    26    16    17 1   
    27    16    18 1   
    28    16    70 1   
    29    17    19 1   
    30    17    71 1   
    31    18    72 1   
    32    19    73 1   
    33    20    21 2   
    34    20    22 1   
    35    20    28 1   
    36    22    23 1   
    37    22    74 1   
    38    22    75 1   
    39    23    24 1   
    40    23    76 1   
    41    23    77 1   
    42    24    25 1   
    43    24    78 1   
    44    24    79 1   
    45    25    26 1   
    46    25    80 1   
    47    25    81 1   
    48    26    27 1   
    49    26    82 1   
    50    26    83 1   
    51    27    84 1   
    52    28    29 1   
    53    28    85 1   
    54    29    30 1   
    55    29    31 1   
    56    29    86 1   
    57    30    87 1   
    58    30    88 1   
    59    30    89 1   
    60    31    32 2   
    61    31    40 1   
    62    33    34 2   
    63    33    35 1   
    64    33    41 1   
    65    35    36 1   
    66    35    90 1   
    67    35    91 1   
    68    36    37 1   
    69    36    92 1   
    70    36    93 1   
    71    37    38 1   
    72    37    94 1   
    73    37    95 1   
    74    38    39 1   
    75    38    96 1   
    76    38    97 1   
    77    39    40 1   
    78    39    98 1   
    79    39    99 1   
    80    40   100 1   
    81    41    42 1   
    82    41   101 1   
    83    42    43 1   
    84    42    50 1   
    85    42   102 1   
    86    43    44 1   
    87    43   103 1   
    88    43   104 1   
    89    44    45 1   
    90    44   105 1   
    91    44   106 1   
    92    45    46 1   
    93    45   107 1   
    94    45   108 1   
    95    46    47 1   
    96    46   109 1   
    97    47    48 1   
    98    47    49 2   
    99    48   110 1   
   100    48   111 1   
   101    49   112 1   
   102    50    51 2   
   103    50    52 1   
   104    52    53 1   
   105    52   113 1   
   106    53    54 1   
   107    53    61 1   
   108    53   114 1   
   109    54    55 1   
   110    54   115 1   
   111    54   116 1   
   112    55    56 1   
   113    55   117 1   
   114    55   118 1   
   115    56    57 1   
   116    56   119 1   
   117    56   120 1   
   118    57    58 1   
   119    57   121 1   
   120    58    59 1   
   121    58    60 2   
   122    59   122 1   
   123    59   123 1   
   124    60   124 1   
   125    61    62 2   
   126    61    63 1   
   127    63   125 1   
   128    63   126 1   
@<TRIPOS>SUBSTRUCTURE
     1 A03         1 TEMP              0 ****  ****    0 ROOT
