@<TRIPOS>MOLECULE
A04
   25    26     1     0     0
SMALL
bcc


@<TRIPOS>ATOM
      1 OAQ          3.1130     1.8200    -1.1290 o          1 A04      -0.796300
      2 CAB          3.5520     1.0490    -0.2610 c          1 A04       0.837100
      3 OAR          4.6730     1.0530     0.2840 o          1 A04      -0.796300
      4 CAA          2.6340    -0.0410     0.2090 cc         1 A04       0.254200
      5 OAP          1.3850    -0.1130    -0.3010 os         1 A04      -0.275800
      6 CAD          2.8130    -1.0510     1.1030 cd         1 A04      -0.309300
      7 CAE          1.5990    -1.7840     1.1370 cd         1 A04      -0.244300
      8 CAC          0.7590    -1.1630     0.2590 cc         1 A04       0.197200
      9 CAG         -0.6110    -1.4740    -0.1210 ca         1 A04      -0.049500
     10 CAK         -1.0480    -2.8000    -0.0300 ca         1 A04      -0.132000
     11 CAH         -2.3440    -3.1590    -0.3580 ca         1 A04      -0.125000
     12 CAF         -3.2380    -2.2000    -0.8130 ca         1 A04      -0.148000
     13 CAI         -2.8320    -0.8790    -0.9170 ca         1 A04      -0.124000
     14 CAJ         -1.5390    -0.5290    -0.5650 ca         1 A04       0.096100
     15 OAS         -1.1600     0.7990    -0.7080 os         1 A04      -0.351900
     16 CAL         -1.3630     1.6250     0.3250 c3         1 A04       0.854700
     17 FAN         -0.8000     1.1950     1.4560 f          1 A04      -0.232967
     18 FAO         -0.8380     2.7980     0.0130 f          1 A04      -0.232967
     19 FAM         -2.6600     1.8080     0.5910 f          1 A04      -0.232967
     20 HAD          3.7060    -1.2460     1.6740 ha         1 A04       0.159000
     21 HAE          1.3720    -2.6450     1.7440 ha         1 A04       0.130000
     22 HAK         -0.3490    -3.5620     0.2900 ha         1 A04       0.138000
     23 HAH         -2.6470    -4.1950    -0.2790 ha         1 A04       0.122000
     24 HAF         -4.2470    -2.4750    -1.0900 ha         1 A04       0.124000
     25 HAI         -3.5140    -0.1220    -1.2800 ha         1 A04       0.141000
@<TRIPOS>BOND
     1     1     2 1   
     2     2     3 1   
     3     2     4 1   
     4     4     5 1   
     5     4     6 2   
     6     5     8 1   
     7     6     7 1   
     8     6    20 1   
     9     7     8 2   
    10     7    21 1   
    11     8     9 1   
    12     9    10 ar  
    13     9    14 ar  
    14    10    11 ar  
    15    10    22 1   
    16    11    12 ar  
    17    11    23 1   
    18    12    13 ar  
    19    12    24 1   
    20    13    14 ar  
    21    13    25 1   
    22    14    15 1   
    23    15    16 1   
    24    16    17 1   
    25    16    18 1   
    26    16    19 1   
@<TRIPOS>SUBSTRUCTURE
     1 A04         1 TEMP              0 ****  ****    0 ROOT
