@<TRIPOS>MOLECULE
A04
   25    26     1     0     0
SMALL
No Charge or Current Charge


@<TRIPOS>ATOM
      1 OAQ          3.5530     1.7570    -1.1260 o          1 A04      -0.691000
      2 CAB          3.7870     0.9310    -0.2520 c          1 A04       0.626500
      3 OAR          4.8700     0.8800     0.3190 o          1 A04      -0.691000
      4 CAA          2.7150    -0.0500     0.1300 cc         1 A04       0.144500
      5 OAP          1.4610    -0.0760    -0.4530 os         1 A04      -0.187000
      6 CAD          2.8040    -1.0420     1.0820 cd         1 A04      -0.226000
      7 CAE          1.5650    -1.7180     1.1030 cd         1 A04      -0.161000
      8 CAC          0.7830    -1.1010     0.1650 cc         1 A04       0.087500
      9 CAG         -0.5980    -1.4760    -0.1620 ca         1 A04      -0.049500
     10 CAK         -1.0010    -2.8250    -0.0540 ca         1 A04      -0.114000
     11 CAH         -2.3170    -3.2110    -0.3620 ca         1 A04      -0.107000
     12 CAF         -3.2510    -2.2520    -0.7830 ca         1 A04      -0.130000
     13 CAI         -2.8680    -0.9060    -0.8930 ca         1 A04      -0.106000
     14 CAJ         -1.5530    -0.5150    -0.5790 ca         1 A04       0.096100
     15 OAS         -1.2140     0.8140    -0.6840 os         1 A04      -0.375100
     16 CAL         -1.5470     1.7250     0.3780 c3         1 A04       0.514000
     17 FAN         -1.0050     1.3420     1.5570 f          1 A04      -0.111667
     18 FAO         -1.0850     2.9670     0.1120 f          1 A04      -0.111667
     19 FAM         -2.8830     1.8270     0.5600 f          1 A04      -0.111667
     20 HAD          3.6700    -1.2570     1.6990 ha         1 A04       0.141000
     21 HAE          1.2860    -2.5500     1.7410 ha         1 A04       0.112000
     22 HAK         -0.2890    -3.5850     0.2590 ha         1 A04       0.120000
     23 HAH         -2.6110    -4.2550    -0.2780 ha         1 A04       0.104000
     24 HAF         -4.2680    -2.5510    -1.0250 ha         1 A04       0.106000
     25 HAI         -3.5910    -0.1640    -1.2210 ha         1 A04       0.123000
@<TRIPOS>BOND
     1     1     2 1   
     2     2     3 1   
     3     2     4 1   
     4     4     5 1   
     5     4     6 2   
     6     5     8 1   
     7     6     7 1   
     8     6    20 1   
     9     7     8 2   
    10     7    21 1   
    11     8     9 1   
    12     9    10 ar  
    13     9    14 ar  
    14    10    11 ar  
    15    10    22 1   
    16    11    12 ar  
    17    11    23 1   
    18    12    13 ar  
    19    12    24 1   
    20    13    14 ar  
    21    13    25 1   
    22    14    15 1   
    23    15    16 1   
    24    16    17 1   
    25    16    18 1   
    26    16    19 1   
@<TRIPOS>SUBSTRUCTURE
     1 A04         1 TEMP              0 ****  ****    0 ROOT
