@<TRIPOS>MOLECULE
A05
   23    24     1     0     0
SMALL
No Charge or Current Charge


@<TRIPOS>ATOM
      1 OAN          4.5620     1.9280    -0.8940 o          1 A05      -0.684500
      2 CAB          4.5920     0.9070    -0.2170 c          1 A05       0.625500
      3 OAO          5.6460     0.4100     0.1640 o          1 A05      -0.684500
      4 CAA          3.2960     0.2430     0.1580 cc         1 A05       0.161500
      5 OAM          2.0530     0.7250    -0.2160 os         1 A05      -0.208000
      6 CAD          3.1400    -0.8990     0.9130 cd         1 A05      -0.233000
      7 CAE          1.7550    -1.1540     1.0140 cd         1 A05      -0.117000
      8 CAC          1.1400    -0.1680     0.2920 cc         1 A05       0.064500
      9 CAG         -0.3050     0.0360     0.1810 ca         1 A05       0.003500
     10 CAK         -0.8240     1.3260     0.4090 ca         1 A05      -0.118000
     11 CAH         -2.2040     1.5760     0.3220 ca         1 A05      -0.043000
     12 CAF         -3.0980     0.5320    -0.0050 ca         1 A05      -0.210200
     13 NAL         -4.5710     0.7900    -0.1000 no         1 A05       0.703200
     14 OAQ         -4.9790     1.9390     0.1160 o          1 A05      -0.419000
     15 OAP         -5.3140    -0.1570    -0.3900 o          1 A05      -0.419000
     16 CAI         -2.5780    -0.7610    -0.2480 ca         1 A05      -0.042000
     17 CAJ         -1.1970    -1.0090    -0.1580 ca         1 A05       0.084000
     18 ClAR        -0.6230    -2.6360    -0.5310 cl         1 A05      -0.193000
     19 HAD          3.9400    -1.4830     1.3570 ha         1 A05       0.146000
     20 HAE          1.2750    -1.9580     1.5610 ha         1 A05       0.126000
     21 HAK         -0.1500     2.1410     0.6640 ha         1 A05       0.160000
     22 HAH         -2.5680     2.5850     0.5100 ha         1 A05       0.146000
     23 HAI         -3.2380    -1.5840    -0.5140 ha         1 A05       0.151000
@<TRIPOS>BOND
     1     1     2 1   
     2     2     3 1   
     3     2     4 1   
     4     4     5 1   
     5     4     6 2   
     6     5     8 1   
     7     6     7 1   
     8     6    19 1   
     9     7     8 2   
    10     7    20 1   
    11     8     9 1   
    12     9    10 ar  
    13     9    17 ar  
    14    10    11 ar  
    15    10    21 1   
    16    11    12 ar  
    17    11    22 1   
    18    12    13 1   
    19    12    16 ar  
    20    13    14 1   
    21    13    15 1   
    22    16    17 ar  
    23    16    23 1   
    24    17    18 1   
@<TRIPOS>SUBSTRUCTURE
     1 A05         1 TEMP              0 ****  ****    0 ROOT
