@<TRIPOS>MOLECULE
A05
   23    24     1     0     0
SMALL
bcc


@<TRIPOS>ATOM
      1 OAN          3.9900     2.3690    -0.3380 o          1 A05      -0.789800
      2 CAB          4.3210     1.2340     0.0410 c          1 A05       0.836100
      3 OAO          5.4610     0.7820     0.2480 o          1 A05      -0.789800
      4 CAA          3.2070     0.2560     0.2920 cc         1 A05       0.271200
      5 OAM          1.9380     0.6460     0.0770 os         1 A05      -0.296800
      6 CAD          3.2130    -1.0380     0.7170 cd         1 A05      -0.316300
      7 CAE          1.8630    -1.4600     0.7570 cd         1 A05      -0.200300
      8 CAC          1.1120    -0.3880     0.3530 cc         1 A05       0.174200
      9 CAG         -0.3030    -0.1020     0.2170 ca         1 A05       0.003500
     10 CAK         -0.7200     1.2370     0.1520 ca         1 A05      -0.136000
     11 CAH         -2.0440     1.5930     0.0250 ca         1 A05      -0.061000
     12 CAF         -3.0010     0.5920    -0.0400 ca         1 A05      -0.210200
     13 NAL         -4.4020     0.9420    -0.1690 no         1 A05       0.323200
     14 OAQ         -4.6860     2.1140    -0.2510 o          1 A05      -0.229000
     15 OAP         -5.2150     0.0470    -0.1890 o          1 A05      -0.229000
     16 CAI         -2.6430    -0.7440     0.0120 ca         1 A05      -0.060000
     17 CAJ         -1.3080    -1.0790     0.1360 ca         1 A05      -0.007600
     18 CLAR        -0.9370    -2.7650     0.1530 cl         1 A05      -0.101400
     19 HAD          4.0820    -1.6220     0.9720 ha         1 A05       0.164000
     20 HAE          1.5110    -2.4250     1.0730 ha         1 A05       0.144000
     21 HAK          0.0140     2.0270     0.2140 ha         1 A05       0.178000
     22 HAH         -2.3140     2.6380    -0.0150 ha         1 A05       0.164000
     23 HAI         -3.3870    -1.5250    -0.0490 ha         1 A05       0.169000
@<TRIPOS>BOND
     1     1     2 1   
     2     2     3 1   
     3     2     4 1   
     4     4     5 1   
     5     4     6 2   
     6     5     8 1   
     7     6     7 1   
     8     6    19 1   
     9     7     8 2   
    10     7    20 1   
    11     8     9 1   
    12     9    10 ar  
    13     9    17 ar  
    14    10    11 ar  
    15    10    21 1   
    16    11    12 ar  
    17    11    22 1   
    18    12    13 1   
    19    12    16 ar  
    20    13    14 1   
    21    13    15 1   
    22    16    17 ar  
    23    16    23 1   
    24    17    18 1   
@<TRIPOS>SUBSTRUCTURE
     1 A05         1 TEMP              0 ****  ****    0 ROOT
