@<TRIPOS>MOLECULE
A06
   36    38     1     0     0
SMALL
No Charge or Current Charge


@<TRIPOS>ATOM
      1 C1           2.5670     0.2240    -0.0540 ca         1 A06      -0.023300
      2 C6           3.3300     0.6760     1.0440 ca         1 A06      -0.084500
      3 C5           4.7060     0.9270     0.8990 ca         1 A06      -0.112000
      4 C4           5.3300     0.7300    -0.3420 ca         1 A06       0.111000
      5 C3           4.5810     0.2830    -1.4410 ca         1 A06      -0.112000
      6 C2           3.2050     0.0300    -1.2990 ca         1 A06      -0.084500
      7 C8          -3.1500     1.1890     0.4540 ca         1 A06      -0.084200
      8 C9          -4.2130     1.4820     1.3180 ca         1 A06      -0.102000
      9 C10         -5.5180     1.1880     0.8740 ca         1 A06      -0.103000
     10 C11         -5.7200     0.6180    -0.4050 ca         1 A06       0.093000
     11 C12         -4.6230     0.3380    -1.2460 ca         1 A06      -0.043000
     12 C13         -3.3330     0.6380    -0.7830 ca         1 A06       0.084400
     13 N14         -2.1290     0.4480    -1.4380 nc         1 A06      -0.581100
     14 C15         -1.2380     0.9010    -0.5340 cd         1 A06       0.456800
     15 C14          1.0650    -0.0380     0.1130 c3         1 A06       0.005600
     16 C16          0.2450     0.9100    -0.8040 c3         1 A06      -0.109700
     17 C17          0.7030    -1.5360    -0.1060 c3         1 A06      -0.211400
     18 C18          1.3940    -2.4250     0.9420 c          1 A06       0.718000
     19 O1           2.4700    -2.9280     0.6590 o          1 A06      -0.734000
     20 O2           0.8420    -2.5700     2.0220 o          1 A06      -0.734000
     21 N9          -1.8110     1.3800     0.6510 na         1 A06      -0.307600
     22 Cl2          7.0500     1.0460    -0.5220 cl         1 A06      -0.248000
     23 H6           2.8590     0.8330     2.0110 ha         1 A06       0.118500
     24 H2           2.6370    -0.3170    -2.1580 ha         1 A06       0.118500
     25 H5           5.2880     1.2750     1.7500 ha         1 A06       0.114500
     26 H3           5.0650     0.1300    -2.4030 ha         1 A06       0.114500
     27 HA          -1.3320     1.7760     1.4490 hn         1 A06       0.359000
     28 H10         -6.3710     1.3990     1.5140 ha         1 A06       0.119000
     29 H12         -4.7720    -0.0990    -2.2290 ha         1 A06       0.140000
     30 H14          0.7860     0.2060     1.1460 hc         1 A06       0.061700
     31 H161         0.4310     0.6540    -1.8540 hc         1 A06       0.057200
     32 H162         0.6160     1.9340    -0.6730 hc         1 A06       0.057200
     33 H171        -0.3820    -1.6030     0.0320 hc         1 A06       0.032200
     34 H172         1.0290    -1.8050    -1.1180 hc         1 A06       0.032200
     35 Cl1         -7.3540     0.2560    -0.9490 cl         1 A06      -0.233000
     36 H9          -4.0400     1.9210     2.2990 ha         1 A06       0.116000
@<TRIPOS>BOND
     1     1     2 ar  
     2     1     6 ar  
     3     1    15 1   
     4     2     3 ar  
     5     2    23 1   
     6     3     4 ar  
     7     3    25 1   
     8     4     5 ar  
     9     4    22 1   
    10     5     6 ar  
    11     5    26 1   
    12     6    24 1   
    13     7     8 ar  
    14     7    12 ar  
    15     7    21 1   
    16     8     9 ar  
    17     8    36 1   
    18     9    10 ar  
    19     9    28 1   
    20    10    11 ar  
    21    10    35 1   
    22    11    12 ar  
    23    11    29 1   
    24    12    13 1   
    25    13    14 2   
    26    14    16 1   
    27    14    21 1   
    28    15    16 1   
    29    15    17 1   
    30    15    30 1   
    31    16    31 1   
    32    16    32 1   
    33    17    18 1   
    34    17    33 1   
    35    17    34 1   
    36    18    19 1   
    37    18    20 1   
    38    21    27 1   
@<TRIPOS>SUBSTRUCTURE
     1 A06         1 TEMP              0 ****  ****    0 ROOT
