@<TRIPOS>MOLECULE
A06
   36    38     1     0     0
SMALL
bcc


@<TRIPOS>ATOM
      1 C1           2.5360     0.2440     0.0110 ca         1 A06      -0.023300
      2 C6           3.2860     0.8410     1.0190 ca         1 A06      -0.102500
      3 C5           4.6490     1.0630     0.8760 ca         1 A06      -0.130000
      4 C4           5.2730     0.6760    -0.2990 ca         1 A06       0.019400
      5 C3           4.5540     0.0820    -1.3230 ca         1 A06      -0.130000
      6 C2           3.1920    -0.1270    -1.1610 ca         1 A06      -0.102500
      7 C8          -3.1270     1.1850     0.5010 ca         1 A06      -0.084200
      8 C9          -4.2150     1.4060     1.3340 ca         1 A06      -0.120000
      9 C10         -5.4640     1.0630     0.8470 ca         1 A06      -0.121000
     10 C11         -5.5990     0.5170    -0.4350 ca         1 A06       0.001400
     11 C12         -4.5230     0.2970    -1.2730 ca         1 A06      -0.061000
     12 C13         -3.2630     0.6430    -0.7880 ca         1 A06       0.084400
     13 N14         -2.0330     0.5420    -1.3890 nc         1 A06      -0.581100
     14 C15         -1.1800     0.9990    -0.5100 cd         1 A06       0.456800
     15 C14          1.0510     0.0350     0.1780 c3         1 A06       0.005600
     16 C16          0.2950     1.0670    -0.6870 c3         1 A06      -0.109700
     17 C17          0.6350    -1.3940    -0.1540 c3         1 A06      -0.211400
     18 C18          1.3550    -2.4610     0.6880 c          1 A06       0.928600
     19 O1           1.5470    -3.5670     0.1420 o          1 A06      -0.839300
     20 O2           1.6560    -2.1460     1.8560 o          1 A06      -0.839300
     21 N9          -1.7830     1.3970     0.6420 na         1 A06      -0.257300
     22 CL2          6.9780     0.9410    -0.4910 cl         1 A06      -0.156400
     23 H6           2.8010     1.1410     1.9390 ha         1 A06       0.136500
     24 H2           2.6460    -0.5930    -1.9720 ha         1 A06       0.136500
     25 H5           5.2130     1.5260     1.6740 ha         1 A06       0.132500
     26 H3           5.0460    -0.2200    -2.2390 ha         1 A06       0.132500
     27 HA          -1.3230     1.7940     1.4450 hn         1 A06       0.308700
     28 H10         -6.3410     1.2160     1.4600 ha         1 A06       0.137000
     29 H12         -4.6480    -0.1270    -2.2610 ha         1 A06       0.158000
     30 H14          0.8090     0.2230     1.2270 hc         1 A06       0.061700
     31 H161         0.5120     0.9040    -1.7440 hc         1 A06       0.057200
     32 H162         0.6430     2.0720    -0.4360 hc         1 A06       0.057200
     33 H171        -0.4410    -1.5020     0.0260 hc         1 A06       0.032200
     34 H172         0.7720    -1.5950    -1.2200 hc         1 A06       0.032200
     35 CL1         -7.1950     0.1000    -0.9890 cl         1 A06      -0.141400
     36 H9          -4.1050     1.8290     2.3240 ha         1 A06       0.134000
@<TRIPOS>BOND
     1     1     2 ar  
     2     1     6 ar  
     3     1    15 1   
     4     2     3 ar  
     5     2    23 1   
     6     3     4 ar  
     7     3    25 1   
     8     4     5 ar  
     9     4    22 1   
    10     5     6 ar  
    11     5    26 1   
    12     6    24 1   
    13     7     8 ar  
    14     7    12 ar  
    15     7    21 1   
    16     8     9 ar  
    17     8    36 1   
    18     9    10 ar  
    19     9    28 1   
    20    10    11 ar  
    21    10    35 1   
    22    11    12 ar  
    23    11    29 1   
    24    12    13 1   
    25    13    14 2   
    26    14    16 1   
    27    14    21 1   
    28    15    16 1   
    29    15    17 1   
    30    15    30 1   
    31    16    31 1   
    32    16    32 1   
    33    17    18 1   
    34    17    33 1   
    35    17    34 1   
    36    18    19 1   
    37    18    20 1   
    38    21    27 1   
@<TRIPOS>SUBSTRUCTURE
     1 A06         1 TEMP              0 ****  ****    0 ROOT
