@<TRIPOS>MOLECULE
A07
   38    40     1     0     0
SMALL
No Charge or Current Charge


@<TRIPOS>ATOM
      1 C1          -2.5150     1.0720     0.0820 cp         1 A07      -0.036000
      2 C2          -3.6340     1.1760    -0.7810 ca         1 A07      -0.092500
      3 C3          -4.4370     2.3290    -0.7890 ca         1 A07      -0.112500
      4 C4          -4.1310     3.4050     0.0610 ca         1 A07      -0.104000
      5 C5          -3.0190     3.3270     0.9160 ca         1 A07      -0.112500
      6 C6          -2.2160     2.1720     0.9220 ca         1 A07      -0.092500
      7 C12         -2.1670    -1.4620     0.2810 ca         1 A07       0.174000
      8 C13         -1.3170    -2.5890     0.2750 ca         1 A07      -0.135000
      9 C14          0.0510    -2.3790     0.0780 ca         1 A07      -0.010200
     10 C15          0.5640    -1.1370    -0.0980 ca         1 A07      -0.264900
     11 C16         -0.2420     0.0110    -0.0990 ca         1 A07      -0.015000
     12 C17         -1.6440    -0.1420     0.0860 cp         1 A07      -0.073000
     13 N20          1.0890    -3.2900     0.0330 na         1 A07      -0.060400
     14 N21          2.3120    -2.6250    -0.1810 nc         1 A07      -0.509100
     15 C22          1.9850    -1.3290    -0.2590 cd         1 A07       0.434500
     16 N23          2.8300    -0.2690    -0.4600 ns         1 A07      -0.412400
     17 C24          4.1960    -0.2790    -0.6250 c          1 A07       0.605100
     18 C25          4.8180     1.1070    -0.8410 c3         1 A07      -0.159400
     19 C26          5.5910     1.5870     0.4110 c3         1 A07      -0.064400
     20 C29          6.2280     2.9780     0.2280 c3         1 A07      -0.093100
     21 O35          4.8780    -1.2950    -0.6310 o          1 A07      -0.540100
     22 H2          -3.8730     0.3570    -1.4550 ha         1 A07       0.116000
     23 H3          -5.2930     2.3910    -1.4570 ha         1 A07       0.113500
     24 H4          -4.7510     4.2980     0.0550 ha         1 A07       0.113000
     25 H5          -2.7780     4.1600     1.5720 ha         1 A07       0.113500
     26 H6          -1.3590     2.1230     1.5900 ha         1 A07       0.116000
     27 H13         -1.7160    -3.5880     0.4280 ha         1 A07       0.138000
     28 H16          0.1890     0.9980    -0.2470 ha         1 A07       0.119000
     29 HN23         2.4170     0.6510    -0.4890 hn         1 A07       0.322500
     30 H25          5.5230     1.0470    -1.6800 hc         1 A07       0.057200
     31 H25A         4.0370     1.8430    -1.0690 hc         1 A07       0.057200
     32 H26          4.9100     1.6160     1.2710 hc         1 A07       0.056700
     33 H26A         6.3800     0.8630     0.6540 hc         1 A07       0.056700
     34 H29          6.7650     3.2750     1.1370 hc         1 A07       0.033700
     35 H29A         6.9420     2.9720    -0.6050 hc         1 A07       0.033700
     36 H29B         5.4600     3.7330     0.0200 hc         1 A07       0.033700
     37 HN20         1.0220    -4.3020     0.1340 hn         1 A07       0.385000
     38 Cl1         -3.8820    -1.7440     0.5840 cl         1 A07      -0.192000
@<TRIPOS>BOND
     1     1     2 ar  
     2     1     6 ar  
     3     1    12 1   
     4     2     3 ar  
     5     2    22 1   
     6     3     4 ar  
     7     3    23 1   
     8     4     5 ar  
     9     4    24 1   
    10     5     6 ar  
    11     5    25 1   
    12     6    26 1   
    13     7     8 ar  
    14     7    12 ar  
    15     7    38 1   
    16     8     9 ar  
    17     8    27 1   
    18     9    10 ar  
    19     9    13 1   
    20    10    11 ar  
    21    10    15 1   
    22    11    12 ar  
    23    11    28 1   
    24    13    14 1   
    25    13    37 1   
    26    14    15 2   
    27    15    16 1   
    28    16    17 1   
    29    16    29 1   
    30    17    18 1   
    31    17    21 2   
    32    18    19 1   
    33    18    30 1   
    34    18    31 1   
    35    19    20 1   
    36    19    32 1   
    37    19    33 1   
    38    20    34 1   
    39    20    35 1   
    40    20    36 1   
@<TRIPOS>SUBSTRUCTURE
     1 A07         1 TEMP              0 ****  ****    0 ROOT
