@<TRIPOS>MOLECULE
A07
   38    40     1     0     0
SMALL
bcc


@<TRIPOS>ATOM
      1 C1          -2.7430     1.0200     0.0270 cp         1 A07      -0.036000
      2 C2          -3.6870     1.1450    -0.9920 ca         1 A07      -0.110500
      3 C3          -4.5410     2.2360    -1.0320 ca         1 A07      -0.130500
      4 C4          -4.4660     3.2190    -0.0520 ca         1 A07      -0.122000
      5 C5          -3.5290     3.1050     0.9650 ca         1 A07      -0.130500
      6 C6          -2.6720     2.0120     1.0030 ca         1 A07      -0.110500
      7 C12         -2.2210    -1.4620     0.1610 ca         1 A07       0.082400
      8 C13         -1.3620    -2.5350     0.1730 ca         1 A07      -0.153000
      9 C14          0.0010    -2.2440     0.0740 ca         1 A07      -0.010200
     10 C15          0.4680    -0.9250    -0.0210 ca         1 A07      -0.264900
     11 C16         -0.4360     0.1380    -0.0300 ca         1 A07      -0.033000
     12 C17         -1.7920    -0.1140     0.0510 cp         1 A07      -0.073000
     13 N20          1.0930    -3.0310     0.0560 na         1 A07      -0.010100
     14 N21          2.2330    -2.3280    -0.0490 nc         1 A07      -0.509100
     15 C22          1.8870    -1.0690    -0.0930 cd         1 A07       0.434500
     16 N23          2.7700    -0.0100    -0.2040 ns         1 A07      -0.479400
     17 C24          4.1230    -0.0360    -0.0190 c          1 A07       0.672100
     18 C25          4.7780     1.3150    -0.2030 c3         1 A07      -0.159400
     19 C26          6.2760     1.3130     0.0560 c3         1 A07      -0.064400
     20 C29          6.8830     2.6920    -0.1610 c3         1 A07      -0.093100
     21 O35          4.7310    -1.0470     0.2620 o          1 A07      -0.540100
     22 H2          -3.7460     0.3920    -1.7690 ha         1 A07       0.134000
     23 H3          -5.2640     2.3230    -1.8330 ha         1 A07       0.131500
     24 H4          -5.1330     4.0710    -0.0840 ha         1 A07       0.131000
     25 H5          -3.4620     3.8650     1.7320 ha         1 A07       0.131500
     26 H6          -1.9470     1.9240     1.8020 ha         1 A07       0.134000
     27 H13         -1.7230    -3.5490     0.2670 ha         1 A07       0.156000
     28 H16         -0.0950     1.1630    -0.1150 ha         1 A07       0.137000
     29 HN23         2.3540     0.8840    -0.4140 hn         1 A07       0.322500
     30 H25          4.5730     1.6600    -1.2230 hc         1 A07       0.057200
     31 H25A         4.2820     2.0380     0.4530 hc         1 A07       0.057200
     32 H26          6.4730     0.9810     1.0770 hc         1 A07       0.056700
     33 H26A         6.7630     0.5910    -0.6030 hc         1 A07       0.056700
     34 H29          7.9550     2.6860     0.0360 hc         1 A07       0.033700
     35 H29A         6.7380     3.0330    -1.1880 hc         1 A07       0.033700
     36 H29B         6.4300     3.4350     0.4980 hc         1 A07       0.033700
     37 HN20         1.1360    -4.0350     0.1110 hn         1 A07       0.334700
     38 CL1         -3.9130    -1.7950     0.3350 cl         1 A07      -0.100400
@<TRIPOS>BOND
     1     1     2 ar  
     2     1     6 ar  
     3     1    12 1   
     4     2     3 ar  
     5     2    22 1   
     6     3     4 ar  
     7     3    23 1   
     8     4     5 ar  
     9     4    24 1   
    10     5     6 ar  
    11     5    25 1   
    12     6    26 1   
    13     7     8 ar  
    14     7    12 ar  
    15     7    38 1   
    16     8     9 ar  
    17     8    27 1   
    18     9    10 ar  
    19     9    13 1   
    20    10    11 ar  
    21    10    15 1   
    22    11    12 ar  
    23    11    28 1   
    24    13    14 1   
    25    13    37 1   
    26    14    15 2   
    27    15    16 1   
    28    16    17 1   
    29    16    29 1   
    30    17    18 1   
    31    17    21 2   
    32    18    19 1   
    33    18    30 1   
    34    18    31 1   
    35    19    20 1   
    36    19    32 1   
    37    19    33 1   
    38    20    34 1   
    39    20    35 1   
    40    20    36 1   
@<TRIPOS>SUBSTRUCTURE
     1 A07         1 TEMP              0 ****  ****    0 ROOT
