@<TRIPOS>MOLECULE
A08
   25    26     1     0     0
SMALL
No Charge or Current Charge


@<TRIPOS>ATOM
      1 Cl1          5.0360     1.3240    -0.5340 cl         1 A08      -0.198000
      2 C1           3.5110     0.5480    -0.1290 ca         1 A08       0.128000
      3 C2           2.7440     1.0250     0.9440 ca         1 A08      -0.103000
      4 C3           1.5240     0.4050     1.2680 ca         1 A08      -0.080000
      5 C4           1.0600    -0.7000     0.5230 ca         1 A08      -0.084300
      6 C5           1.8390    -1.1690    -0.5610 ca         1 A08      -0.080000
      7 C6           3.0590    -0.5470    -0.8820 ca         1 A08      -0.103000
      8 C7          -0.2870    -1.3400     0.9020 c3         1 A08       0.003400
      9 C8          -1.4530    -0.7340     0.1240 ca         1 A08       0.363300
     10 C9          -1.5140    -0.7920    -1.2860 ca         1 A08      -0.147000
     11 C10         -2.6030    -0.2110    -1.9560 ca         1 A08      -0.063000
     12 C11         -3.5950     0.4140    -1.1860 ca         1 A08      -0.145000
     13 C12         -3.4590     0.4300     0.2110 ca         1 A08       0.449000
     14 N14         -2.4150    -0.1280     0.8620 nb         1 A08      -0.663000
     15 Cl2         -4.6770     1.2010     1.2140 cl         1 A08      -0.161000
     16 C16         -0.2920    -2.8020     0.7560 c1         1 A08       0.301900
     17 N17         -0.2810    -3.9590     0.6160 n1         1 A08      -0.447000
     18 H1           3.0940     1.8750     1.5240 ha         1 A08       0.132500
     19 H2           0.9370     0.7900     2.1000 ha         1 A08       0.123500
     20 H3           1.5110    -2.0130    -1.1630 ha         1 A08       0.123500
     21 H4           3.6540    -0.9120    -1.7150 ha         1 A08       0.132500
     22 H5          -0.4570    -1.1660     1.9700 hc         1 A08       0.105700
     23 H6          -0.7280    -1.2830    -1.8530 ha         1 A08       0.138000
     24 H7          -2.6740    -0.2420    -3.0420 ha         1 A08       0.129000
     25 H8          -4.4570     0.8790    -1.6550 ha         1 A08       0.143000
@<TRIPOS>BOND
     1     1     2 1   
     2     2     3 ar  
     3     2     7 ar  
     4     3     4 ar  
     5     3    18 1   
     6     4     5 ar  
     7     4    19 1   
     8     5     6 ar  
     9     5     8 1   
    10     6     7 ar  
    11     6    20 1   
    12     7    21 1   
    13     8     9 1   
    14     8    16 1   
    15     8    22 1   
    16     9    10 ar  
    17     9    14 ar  
    18    10    11 ar  
    19    10    23 1   
    20    11    12 ar  
    21    11    24 1   
    22    12    13 ar  
    23    12    25 1   
    24    13    14 ar  
    25    13    15 1   
    26    16    17 3   
@<TRIPOS>SUBSTRUCTURE
     1 A08         1 TEMP              0 ****  ****    0 ROOT
