@<TRIPOS>MOLECULE
A08
   25    26     1     0     0
SMALL
abcg2


@<TRIPOS>ATOM
      1 CL1          4.7400     1.7050    -0.2780 cl         1 A08      -0.198000
      2 C1           3.3100     0.7830     0.0420 ca         1 A08       0.128000
      3 C2           2.6800     0.9070     1.2700 ca         1 A08      -0.103000
      4 C3           1.5360     0.1620     1.5180 ca         1 A08      -0.080000
      5 C4           1.0280    -0.6960     0.5530 ca         1 A08      -0.084300
      6 C5           1.6730    -0.8040    -0.6740 ca         1 A08      -0.080000
      7 C6           2.8170    -0.0680    -0.9360 ca         1 A08      -0.103000
      8 C7          -0.2530    -1.4630     0.8250 c3         1 A08       0.003400
      9 C8          -1.4010    -0.8660     0.0320 ca         1 A08       0.363300
     10 C9          -1.9080    -1.4320    -1.1250 ca         1 A08      -0.147000
     11 C10         -2.9220    -0.7590    -1.7940 ca         1 A08      -0.063000
     12 C11         -3.3920     0.4410    -1.2960 ca         1 A08      -0.145000
     13 C12         -2.8040     0.9040    -0.1260 ca         1 A08       0.449000
     14 N14         -1.8480     0.2870     0.5200 nb         1 A08      -0.663000
     15 CL2         -3.3520     2.4010     0.5520 cl         1 A08      -0.161000
     16 C16         -0.0720    -2.8860     0.5570 c1         1 A08       0.301900
     17 N17          0.0820    -4.0060     0.3490 n1         1 A08      -0.447000
     18 H1           3.0720     1.5710     2.0270 ha         1 A08       0.132500
     19 H2           1.0430     0.2540     2.4780 ha         1 A08       0.123500
     20 H3           1.2880    -1.4630    -1.4430 ha         1 A08       0.123500
     21 H4           3.3130    -0.1570    -1.8920 ha         1 A08       0.132500
     22 H5          -0.5000    -1.3760     1.8870 hc         1 A08       0.105700
     23 H6          -1.5330    -2.3730    -1.5040 ha         1 A08       0.138000
     24 H7          -3.3430    -1.1700    -2.7020 ha         1 A08       0.129000
     25 H8          -4.1780     0.9950    -1.7880 ha         1 A08       0.143000
@<TRIPOS>BOND
     1     1     2 1   
     2     2     3 ar  
     3     2     7 ar  
     4     3     4 ar  
     5     3    18 1   
     6     4     5 ar  
     7     4    19 1   
     8     5     6 ar  
     9     5     8 1   
    10     6     7 ar  
    11     6    20 1   
    12     7    21 1   
    13     8     9 1   
    14     8    16 1   
    15     8    22 1   
    16     9    10 ar  
    17     9    14 ar  
    18    10    11 ar  
    19    10    23 1   
    20    11    12 ar  
    21    11    24 1   
    22    12    13 ar  
    23    12    25 1   
    24    13    14 ar  
    25    13    15 1   
    26    16    17 3   
@<TRIPOS>SUBSTRUCTURE
     1 A08         1 TEMP              0 ****  ****    0 ROOT
