@<TRIPOS>MOLECULE
A09
   18    18     1     0     0
SMALL
abcg2


@<TRIPOS>ATOM
      1 C1           0.4880     0.1340     0.1350 ca         1 A09      -0.302500
      2 N1          -1.9770    -0.3130    -1.0330 n7         1 A09      -0.595800
      3 O1          -1.7160    -0.3480     1.4630 o          1 A09      -0.521000
      4 S1          -1.2520     0.3940     0.3070 sy         1 A09       1.115600
      5 C2           1.2290     1.0390    -0.6160 ca         1 A09      -0.010000
      6 O2          -1.5420     1.8110     0.1670 o          1 A09      -0.521000
      7 C3           2.5900     0.8230    -0.7720 ca         1 A09      -0.130000
      8 O3          -1.6030    -1.6400    -1.1430 oh         1 A09      -0.428300
      9 C4           3.1910    -0.2860    -0.1910 ca         1 A09      -0.052000
     10 C5           2.4370    -1.1830     0.5550 ca         1 A09      -0.130000
     11 C6           1.0750    -0.9800     0.7210 ca         1 A09      -0.010000
     12 HN1         -1.7400     0.1740    -1.8950 hn         1 A09       0.474000
     13 H2           0.7650     1.9080    -1.0610 ha         1 A09       0.136000
     14 H3           3.1780     1.5210    -1.3510 ha         1 A09       0.120500
     15 HO3         -2.4280    -2.1310    -1.0490 ho         1 A09       0.479000
     16 H4           4.2540    -0.4480    -0.3120 ha         1 A09       0.118000
     17 H5           2.9080    -2.0450     1.0080 ha         1 A09       0.120500
     18 H6           0.4890    -1.6810     1.2990 ha         1 A09       0.136000
@<TRIPOS>BOND
     1     1     4 1   
     2     1     5 ar  
     3     1    11 ar  
     4     2     4 1   
     5     2     8 1   
     6     2    12 1   
     7     3     4 2   
     8     4     6 2   
     9     5     7 ar  
    10     5    13 1   
    11     7     9 ar  
    12     7    14 1   
    13     8    15 1   
    14     9    10 ar  
    15     9    16 1   
    16    10    11 ar  
    17    10    17 1   
    18    11    18 1   
@<TRIPOS>SUBSTRUCTURE
     1 A09         1 TEMP              0 ****  ****    0 ROOT
