@<TRIPOS>MOLECULE
A09
   18    18     1     0     0
SMALL
No Charge or Current Charge


@<TRIPOS>ATOM
      1 C1           0.5800     0.0340     0.1450 ca         1 A09      -0.302500
      2 N1          -1.7010    -0.6910    -1.0560 n7         1 A09      -0.595800
      3 O1          -1.5480    -0.8920     1.4810 o          1 A09      -0.521000
      4 S1          -1.2050     0.0340     0.3960 sy         1 A09       1.115600
      5 C2           1.1830     1.0550    -0.6200 ca         1 A09      -0.010000
      6 O2          -1.6900     1.4180     0.3500 o          1 A09      -0.521000
      7 C3           2.5740     1.0550    -0.8190 ca         1 A09      -0.130000
      8 O3          -3.0930    -1.2830    -1.0340 oh         1 A09      -0.428300
      9 C4           3.3690     0.0400    -0.2590 ca         1 A09      -0.052000
     10 C5           2.7700    -0.9780     0.5030 ca         1 A09      -0.130000
     11 C6           1.3790    -0.9850     0.7070 ca         1 A09      -0.010000
     12 HN1         -1.0380    -1.4600    -1.1990 hn         1 A09       0.474000
     13 H2           0.5790     1.8470    -1.0620 ha         1 A09       0.136000
     14 H3           3.0370     1.8430    -1.4090 ha         1 A09       0.120500
     15 HO3         -3.6130    -0.7860    -1.7140 ho         1 A09       0.479000
     16 H4           4.4460     0.0430    -0.4150 ha         1 A09       0.118000
     17 H5           3.3850    -1.7630     0.9360 ha         1 A09       0.120500
     18 H6           0.9330    -1.7820     1.3000 ha         1 A09       0.136000
@<TRIPOS>BOND
     1     1     4 1   
     2     1     5 ar  
     3     1    11 ar  
     4     2     4 1   
     5     2     8 1   
     6     2    12 1   
     7     3     4 2   
     8     4     6 2   
     9     5     7 ar  
    10     5    13 1   
    11     7     9 ar  
    12     7    14 1   
    13     8    15 1   
    14     9    10 ar  
    15     9    16 1   
    16    10    11 ar  
    17    10    17 1   
    18    11    18 1   
@<TRIPOS>SUBSTRUCTURE
     1 A09         1 TEMP              0 ****  ****    0 ROOT
