@<TRIPOS>MOLECULE
A0A
   17    16     1     0     0
SMALL
bcc


@<TRIPOS>ATOM
      1 N           -1.5290     1.7670     0.1780 n8         1 A0A      -0.876800
      2 CA          -1.4260     0.3980    -0.2840 c3         1 A0A       0.028500
      3 C           -2.6740    -0.4300     0.1180 c          1 A0A       0.935600
      4 O           -3.4260     0.0480     0.9860 o          1 A0A      -0.824800
      5 CB          -0.1930    -0.3640     0.2200 c3         1 A0A      -0.165400
      6 CG           1.1070     0.1700    -0.2840 c          1 A0A       0.661100
      7 OD1          1.2730     0.9990    -1.1290 o          1 A0A      -0.524000
      8 OD2          2.1560    -0.4500     0.3530 os         1 A0A      -0.488200
      9 CM1          3.4370    -0.1490     0.0350 c          1 A0A       0.652900
     10 OM2          4.3270    -0.7020     0.6030 o          1 A0A      -0.495000
     11 OXT         -2.7920    -1.5320    -0.4540 o          1 A0A      -0.824800
     12 HN1         -1.7070     1.7760     1.1730 hn         1 A0A       0.326800
     13 HN2         -0.6660     2.2710     0.0190 hn         1 A0A       0.326800
     14 HA          -1.3860     0.4090    -1.3770 h1         1 A0A       0.059700
     15 HBC1        -0.2460    -1.4140    -0.0880 hc         1 A0A       0.088200
     16 HBC2        -0.1670    -0.3760     1.3150 hc         1 A0A       0.088200
     17 HM1          3.5630     0.6060    -0.7470 h5         1 A0A       0.029200
@<TRIPOS>BOND
     1     1     2 1   
     2     1    12 1   
     3     1    13 1   
     4     2     3 1   
     5     2     5 1   
     6     2    14 1   
     7     3     4 1   
     8     3    11 1   
     9     5     6 1   
    10     5    15 1   
    11     5    16 1   
    12     6     7 2   
    13     6     8 1   
    14     8     9 1   
    15     9    10 2   
    16     9    17 1   
@<TRIPOS>SUBSTRUCTURE
     1 A0A         1 TEMP              0 ****  ****    0 ROOT
