@<TRIPOS>MOLECULE
A0A
   17    16     1     0     0
SMALL
No Charge or Current Charge


@<TRIPOS>ATOM
      1 N           -1.3710     1.7210     0.6360 n8         1 A0A      -0.987200
      2 CA          -1.4070     0.4550    -0.1840 c3         1 A0A       0.028500
      3 C           -2.7100    -0.4390    -0.0360 c          1 A0A       0.725000
      4 O           -2.9570    -0.9320     1.0580 o          1 A0A      -0.719500
      5 CB          -0.1250    -0.3790     0.0730 c3         1 A0A      -0.165400
      6 CG           1.0990     0.2320    -0.6090 c          1 A0A       0.612100
      7 OD1          1.3520     0.0450    -1.7910 o          1 A0A      -0.475000
      8 OD2          2.0200     0.6410     0.3090 os         1 A0A      -0.488200
      9 CM1          3.2490     0.0630     0.1480 c          1 A0A       0.603900
     10 OM2          4.1890     0.3540     0.8740 o          1 A0A      -0.446000
     11 OXT         -3.4410    -0.5670    -1.0100 o          1 A0A      -0.719500
     12 HN1         -1.5000     1.4800     1.6280 hn         1 A0A       0.382000
     13 HN2         -0.4330     2.1390     0.6030 hn         1 A0A       0.382000
     14 HA          -1.3860     0.7590    -1.2410 h1         1 A0A       0.059700
     15 HBC1        -0.2750    -1.3820    -0.3440 hc         1 A0A       0.088200
     16 HBC2         0.0340    -0.4430     1.1560 hc         1 A0A       0.088200
     17 HM1          3.3130    -0.7200    -0.6320 h5         1 A0A       0.029200
@<TRIPOS>BOND
     1     1     2 1   
     2     1    12 1   
     3     1    13 1   
     4     2     3 1   
     5     2     5 1   
     6     2    14 1   
     7     3     4 1   
     8     3    11 1   
     9     5     6 1   
    10     5    15 1   
    11     5    16 1   
    12     6     7 2   
    13     6     8 1   
    14     8     9 1   
    15     9    10 2   
    16     9    17 1   
@<TRIPOS>SUBSTRUCTURE
     1 A0A         1 TEMP              0 ****  ****    0 ROOT
