@<TRIPOS>MOLECULE
A0B
   35    38     1     0     0
SMALL
No Charge or Current Charge


@<TRIPOS>ATOM
      1 O3           1.7950    -1.7210    -2.8160 o          1 A0B      -0.673000
      2 C4           0.2260     2.4770     0.2260 ca         1 A0B       0.064000
      3 C5          -0.5210     3.6600     0.2640 ca         1 A0B      -0.169900
      4 O4           1.1240     0.3290    -2.9100 o          1 A0B      -0.673000
      5 C6          -1.9280     3.6200     0.2400 ca         1 A0B       0.625700
      6 C7          -2.5730     2.3710     0.1710 ca         1 A0B      -0.246900
      7 C8          -1.8260     1.1800     0.1310 ca         1 A0B       0.309000
      8 C9          -1.8000    -1.1480    -0.0440 cc         1 A0B       0.309000
      9 C10         -2.5730    -2.2810    -0.1710 cd         1 A0B      -0.280500
     10 C11         -1.9220    -3.6090    -0.2630 c          1 A0B       0.623500
     11 C12         -0.4350    -3.6330    -0.1960 cd         1 A0B      -0.203500
     12 C13          1.8120     0.0210     0.0820 ca         1 A0B      -0.040000
     13 C14          2.5060    -0.2690    -1.1200 ca         1 A0B      -0.074600
     14 C15          3.9150    -0.2090    -1.1500 ca         1 A0B       0.135000
     15 C            0.3000    -2.4750    -0.0680 cc         1 A0B       0.007800
     16 O           -2.5940     4.6750     0.2750 o          1 A0B      -0.650200
     17 C1          -0.3700    -1.2030    -0.0030 cc         1 A0B      -0.249300
     18 C16          4.6360     0.1260     0.0150 ca         1 A0B       0.117000
     19 C17          3.9500     0.4090     1.2130 ca         1 A0B       0.085000
     20 C18          2.5410     0.3590     1.2440 ca         1 A0B       0.133000
     21 C19          1.7500    -0.5790    -2.3830 c          1 A0B       0.722600
     22 C2           0.3350    -0.0300     0.1310 cd         1 A0B       0.202000
     23 C3          -0.4200     1.2240     0.1730 ca         1 A0B      -0.237500
     24 O1          -2.5500     0.0020     0.0570 os         1 A0B      -0.273000
     25 Br1         -4.4790    -2.2290    -0.2310 br         1 A0B      -0.109200
     26 Br2         -4.5050     2.2840     0.1250 br         1 A0B      -0.123600
     27 Br3          0.4270     5.3350     0.3460 br         1 A0B      -0.150100
     28 Cl           1.6840     0.6770     2.7610 cl         1 A0B      -0.180000
     29 Cl1          4.8550     0.8260     2.6770 cl         1 A0B      -0.195000
     30 Cl2          6.4070     0.2010    -0.0270 cl         1 A0B      -0.199000
     31 Cl3          4.7890    -0.5180    -2.6590 cl         1 A0B      -0.177000
     32 H1           1.3100     2.5530     0.2350 ha         1 A0B       0.125000
     33 H            1.3840    -2.5370    -0.0130 ha         1 A0B       0.193000
     34 O2          -2.5780    -4.6390    -0.3820 o          1 A0B      -0.609600
     35 Br           0.4390    -5.3140    -0.2930 br         1 A0B      -0.135700
@<TRIPOS>BOND
     1     1    21 1   
     2     2     3 ar  
     3     2    23 ar  
     4     2    32 1   
     5     3     5 ar  
     6     3    27 1   
     7     4    21 1   
     8     5     6 ar  
     9     5    16 1   
    10     6     7 ar  
    11     6    26 1   
    12     7    23 ar  
    13     7    24 1   
    14     8     9 2   
    15     8    17 1   
    16     8    24 1   
    17     9    10 1   
    18     9    25 1   
    19    10    11 1   
    20    10    34 2   
    21    11    15 2   
    22    11    35 1   
    23    12    13 ar  
    24    12    20 ar  
    25    12    22 1   
    26    13    14 ar  
    27    13    21 1   
    28    14    18 ar  
    29    14    31 1   
    30    15    17 1   
    31    15    33 1   
    32    17    22 2   
    33    18    19 ar  
    34    18    30 1   
    35    19    20 ar  
    36    19    29 1   
    37    20    28 1   
    38    22    23 1   
@<TRIPOS>SUBSTRUCTURE
     1 A0B         1 TEMP              0 ****  ****    0 ROOT
