@<TRIPOS>MOLECULE
A0B
   35    38     1     0     0
SMALL
bcc


@<TRIPOS>ATOM
      1 O3           1.6230    -1.2410    -2.9470 o          1 A0B      -0.778300
      2 C4           0.2540     2.4810     0.0390 ca         1 A0B       0.046000
      3 C5          -0.4870     3.6140     0.0610 ca         1 A0B      -0.169900
      4 O4           1.3020     0.9790    -2.8870 o          1 A0B      -0.778300
      5 C6          -1.9470     3.6290     0.0810 ca         1 A0B       0.625700
      6 C7          -2.5390     2.3120     0.0670 ca         1 A0B      -0.312200
      7 C8          -1.7880     1.1680     0.0510 ca         1 A0B       0.484000
      8 C9          -1.7730    -1.1860     0.0200 cc         1 A0B       0.418700
      9 C10         -2.5080    -2.3400     0.0110 cd         1 A0B      -0.280500
     10 C11         -1.8990    -3.6490    -0.0060 c          1 A0B       0.623500
     11 C12         -0.4390    -3.6150    -0.0210 cd         1 A0B      -0.203500
     12 C13          1.8110     0.0140     0.0480 ca         1 A0B      -0.040000
     13 C14          2.5060    -0.0300    -1.1550 ca         1 A0B      -0.074600
     14 C15          3.8920    -0.0140    -1.1250 ca         1 A0B       0.043400
     15 C            0.2870    -2.4730    -0.0170 cc         1 A0B       0.057800
     16 O           -2.6040     4.6670     0.1050 o          1 A0B      -0.650200
     17 C1          -0.3540    -1.2080     0.0120 cc         1 A0B      -0.314600
     18 C16          4.5880     0.0470     0.0770 ca         1 A0B       0.025400
     19 C17          3.8860     0.0800     1.2790 ca         1 A0B      -0.006600
     20 C18          2.4960     0.0610     1.2550 ca         1 A0B       0.041400
     21 C19          1.7340    -0.1040    -2.4730 c          1 A0B       0.933200
     22 C2           0.3290     0.0050     0.0320 cd         1 A0B       0.202000
     23 C3          -0.3710     1.2080     0.0450 ca         1 A0B      -0.302800
     24 O1          -2.4270    -0.0140     0.0440 os         1 A0B      -0.361800
     25 BR1         -4.3810    -2.2730     0.0220 br         1 A0B      -0.109200
     26 BR2         -4.4100     2.2200     0.0740 br         1 A0B      -0.123600
     27 BR3          0.3490     5.2990     0.0550 br         1 A0B      -0.150100
     28 CL           1.6130     0.0950     2.7270 cl         1 A0B      -0.088400
     29 CL1          4.7260     0.1450     2.7690 cl         1 A0B      -0.103400
     30 CL2          6.2990     0.0790     0.0890 cl         1 A0B      -0.107400
     31 CL3          4.7630    -0.0590    -2.6100 cl         1 A0B      -0.085400
     32 H1           1.3340     2.5280     0.0170 ha         1 A0B       0.143000
     33 H            1.3680    -2.5070    -0.0320 ha         1 A0B       0.143000
     34 O2          -2.5420    -4.6960    -0.0090 o          1 A0B      -0.609600
     35 BR           0.4180    -5.2880    -0.0580 br         1 A0B      -0.135700
@<TRIPOS>BOND
     1     1    21 1   
     2     2     3 ar  
     3     2    23 ar  
     4     2    32 1   
     5     3     5 ar  
     6     3    27 1   
     7     4    21 1   
     8     5     6 ar  
     9     5    16 1   
    10     6     7 ar  
    11     6    26 1   
    12     7    23 ar  
    13     7    24 1   
    14     8     9 2   
    15     8    17 1   
    16     8    24 1   
    17     9    10 1   
    18     9    25 1   
    19    10    11 1   
    20    10    34 2   
    21    11    15 2   
    22    11    35 1   
    23    12    13 ar  
    24    12    20 ar  
    25    12    22 1   
    26    13    14 ar  
    27    13    21 1   
    28    14    18 ar  
    29    14    31 1   
    30    15    17 1   
    31    15    33 1   
    32    17    22 2   
    33    18    19 ar  
    34    18    30 1   
    35    19    20 ar  
    36    19    29 1   
    37    20    28 1   
    38    22    23 1   
@<TRIPOS>SUBSTRUCTURE
     1 A0B         1 TEMP              0 ****  ****    0 ROOT
