@<TRIPOS>MOLECULE
A0C
   30    31     1     0     0
SMALL
bcc


@<TRIPOS>ATOM
      1 O1           5.5160    -0.1580     1.6280 o          1 A0C      -0.588100
      2 C9           5.2400     0.0890     0.4660 c          1 A0C       0.598600
      3 N3           6.1130     0.4850    -0.4620 nt         1 A0C      -0.658000
      4 C8           3.8290    -0.0500     0.0040 cc         1 A0C       0.279800
      5 C7           2.7230    -0.4420     0.7920 cc         1 A0C      -0.323600
      6 N2           3.4740     0.1890    -1.2260 nd         1 A0C      -0.354300
      7 O            2.1470    -0.0370    -1.2880 os         1 A0C      -0.093100
      8 C6           1.6930    -0.4160    -0.0850 cd         1 A0C       0.274000
      9 C5           0.2490    -0.7110     0.0460 c3         1 A0C      -0.047600
     10 S           -0.6780     0.8510    -0.1070 ss         1 A0C      -0.231400
     11 C4          -2.3380     0.2840     0.0170 ca         1 A0C       0.764300
     12 N           -3.2270     1.2640    -0.0380 nb         1 A0C      -0.719000
     13 C3          -4.5060     0.9090     0.0550 ca         1 A0C       0.473600
     14 C10         -5.5240     2.0000     0.0110 c3         1 A0C      -0.151900
     15 C2          -4.8640    -0.4270     0.1980 ca         1 A0C      -0.377600
     16 N1          -2.5710    -1.0050     0.1510 nb         1 A0C      -0.719000
     17 C1          -3.8510    -1.3730     0.2420 ca         1 A0C       0.473600
     18 C           -4.1290    -2.8330     0.3830 c3         1 A0C      -0.151900
     19 H31N         7.0860     0.5990    -0.2270 hn         1 A0C       0.328500
     20 H32N         5.8350     0.6720    -1.4110 hn         1 A0C       0.328500
     21 H7           2.6990    -0.6980     1.8370 ha         1 A0C       0.192000
     22 H51C        -0.0810    -1.4070    -0.7250 h1         1 A0C       0.100200
     23 H52C         0.0590    -1.1580     1.0190 h1         1 A0C       0.100200
     24 H101        -5.3940     2.6090    -0.8840 hc         1 A0C       0.058367
     25 H102        -6.5370     1.6060     0.0210 hc         1 A0C       0.058367
     26 H103        -5.4040     2.6610     0.8710 hc         1 A0C       0.058367
     27 H2          -5.9020    -0.7200     0.2780 ha         1 A0C       0.152000
     28 HC1         -3.8420    -3.3590    -0.5290 hc         1 A0C       0.058367
     29 HC2         -3.5400    -3.2550     1.1970 hc         1 A0C       0.058367
     30 HC3         -5.1820    -3.0270     0.5740 hc         1 A0C       0.058367
@<TRIPOS>BOND
     1     1     2 2   
     2     2     3 1   
     3     2     4 1   
     4     3    19 1   
     5     3    20 1   
     6     4     5 1   
     7     4     6 2   
     8     5     8 2   
     9     5    21 1   
    10     6     7 1   
    11     7     8 1   
    12     8     9 1   
    13     9    10 1   
    14     9    22 1   
    15     9    23 1   
    16    10    11 1   
    17    11    12 ar  
    18    11    16 ar  
    19    12    13 ar  
    20    13    14 1   
    21    13    15 ar  
    22    14    24 1   
    23    14    25 1   
    24    14    26 1   
    25    15    17 ar  
    26    15    27 1   
    27    16    17 ar  
    28    17    18 1   
    29    18    28 1   
    30    18    29 1   
    31    18    30 1   
@<TRIPOS>SUBSTRUCTURE
     1 A0C         1 TEMP              0 ****  ****    0 ROOT
