@<TRIPOS>MOLECULE
A0C
   30    31     1     0     0
SMALL
No Charge or Current Charge


@<TRIPOS>ATOM
      1 O1           5.1920     1.1910     1.5170 o          1 A0C      -0.588100
      2 C9           5.1620     0.5260     0.4900 c          1 A0C       0.531600
      3 N3           6.3180     0.3020    -0.1850 nt         1 A0C      -0.591000
      4 C8           3.9220    -0.0790    -0.1000 cc         1 A0C       0.214500
      5 C7           2.6590     0.0810     0.5060 cc         1 A0C      -0.175000
      6 N2           3.8700    -0.8050    -1.2140 nd         1 A0C      -0.354300
      7 O            2.4720    -1.1420    -1.3450 os         1 A0C      -0.048700
      8 C6           1.7930    -0.5880    -0.2930 cd         1 A0C       0.164300
      9 C5           0.3060    -0.7850    -0.1800 c3         1 A0C       0.000300
     10 S           -0.6420     0.8040    -0.0610 ss         1 A0C      -0.279300
     11 C4          -2.3550     0.2940     0.0670 ca         1 A0C       0.238300
     12 N           -3.2650     1.2860     0.1670 nb         1 A0C      -0.193000
     13 C3          -4.5600     0.9250     0.2620 ca         1 A0C       0.145300
     14 C10         -5.5830     2.0400     0.3780 c3         1 A0C      -0.151900
     15 C2          -4.9410    -0.4280     0.2620 ca         1 A0C      -0.229000
     16 N1          -2.6290    -1.0290     0.0570 nb         1 A0C      -0.193000
     17 C1          -3.9230    -1.3900     0.1560 ca         1 A0C       0.145300
     18 C           -4.2290    -2.8760     0.1410 c3         1 A0C      -0.151900
     19 H31N         7.1840     0.6850     0.1660 hn         1 A0C       0.328500
     20 H32N         6.3040    -0.2460    -1.0340 hn         1 A0C       0.328500
     21 H7           2.4430     0.6290     1.4160 ha         1 A0C       0.174000
     22 H51C        -0.0470    -1.3440    -1.0550 h1         1 A0C       0.100200
     23 H52C         0.1010    -1.3900     0.7130 h1         1 A0C       0.100200
     24 H101        -5.3110     2.8970    -0.2490 hc         1 A0C       0.058367
     25 H102        -6.5780     1.7030     0.0630 hc         1 A0C       0.058367
     26 H103        -5.6600     2.3910     1.4130 hc         1 A0C       0.058367
     27 H2          -5.9850    -0.7190     0.3410 ha         1 A0C       0.134000
     28 HC1         -4.2490    -3.2580    -0.8860 hc         1 A0C       0.058367
     29 HC2         -3.4740    -3.4440     0.6980 hc         1 A0C       0.058367
     30 HC3         -5.2030    -3.0870     0.5970 hc         1 A0C       0.058367
@<TRIPOS>BOND
     1     1     2 2   
     2     2     3 1   
     3     2     4 1   
     4     3    19 1   
     5     3    20 1   
     6     4     5 1   
     7     4     6 2   
     8     5     8 2   
     9     5    21 1   
    10     6     7 1   
    11     7     8 1   
    12     8     9 1   
    13     9    10 1   
    14     9    22 1   
    15     9    23 1   
    16    10    11 1   
    17    11    12 ar  
    18    11    16 ar  
    19    12    13 ar  
    20    13    14 1   
    21    13    15 ar  
    22    14    24 1   
    23    14    25 1   
    24    14    26 1   
    25    15    17 ar  
    26    15    27 1   
    27    16    17 ar  
    28    17    18 1   
    29    18    28 1   
    30    18    29 1   
    31    18    30 1   
@<TRIPOS>SUBSTRUCTURE
     1 A0C         1 TEMP              0 ****  ****    0 ROOT
