@<TRIPOS>MOLECULE
A0D
   48    51     1     0     0
SMALL
No Charge or Current Charge


@<TRIPOS>ATOM
      1 N1           0.0070     0.8240    -0.4310 ns         1 A0D      -0.512900
      2 C2          -1.1260     0.6110    -1.1890 c          1 A0D       0.597100
      3 C3          -2.3960     1.0430    -0.3560 c5         1 A0D       0.110500
      4 O4          -1.0900     0.1590    -2.3290 o          1 A0D      -0.580100
      5 N5          -3.3410    -0.0530     0.0220 n3         1 A0D      -0.730600
      6 C6          -4.5450     0.6880     0.4530 c5         1 A0D       0.181800
      7 C7          -4.7550     1.6170    -0.7670 c5         1 A0D      -0.083400
      8 C8          -3.3020     2.0050    -1.1900 c5         1 A0D      -0.077400
      9 C9           2.4270     1.2990    -0.0130 c6         1 A0D      -0.073700
     10 C10          1.3770     0.4810    -0.8320 c6         1 A0D       0.122700
     11 C11          2.3610     0.9240     1.5010 c6         1 A0D      -0.067650
     12 C12          2.6530    -0.5940     1.6780 c6         1 A0D      -0.061700
     13 C13          4.0750    -0.9120     1.1300 c6         1 A0D      -0.067400
     14 C14          4.1520    -0.5390    -0.3800 c6         1 A0D      -0.061700
     15 C15          3.0930    -1.3640    -1.1680 c6         1 A0D      -0.067650
     16 C16          1.6690    -1.0420    -0.6290 c6         1 A0D      -0.073700
     17 C17          1.5980    -1.4180     0.8840 c6         1 A0D      -0.067650
     18 C18          3.8530     0.9800    -0.5520 c6         1 A0D      -0.067650
     19 C19         -2.7990    -1.0420     0.9820 c3         1 A0D       0.188800
     20 C20         -3.7520    -2.2140     1.2790 c3         1 A0D      -0.091100
     21 HN1         -0.1350     1.1980     0.4980 hn         1 A0D       0.307500
     22 H3          -2.0580     1.5650     0.5520 h1         1 A0D       0.027700
     23 H6          -5.4130     0.0360     0.6200 h1         1 A0D       0.035200
     24 H6A         -4.3600     1.2630     1.3720 h1         1 A0D       0.035200
     25 H7          -5.2650     1.0810    -1.5760 hc         1 A0D       0.058200
     26 H7A         -5.3700     2.4900    -0.5200 hc         1 A0D       0.058200
     27 H8          -3.0730     3.0530    -0.9650 hc         1 A0D       0.049200
     28 H8A         -3.1700     1.8750    -2.2700 hc         1 A0D       0.049200
     29 H9           2.2280     2.3730    -0.1350 hc         1 A0D       0.061700
     30 H10          1.4890     0.7290    -1.8980 h1         1 A0D       0.071700
     31 H11          3.0940     1.5160     2.0670 hc         1 A0D       0.040700
     32 H11A         1.3790     1.1740     1.9240 hc         1 A0D       0.040700
     33 H12          2.6010    -0.8580     2.7440 hc         1 A0D       0.049200
     34 H13          4.8330    -0.3540     1.6970 hc         1 A0D       0.039700
     35 H13A         4.3060    -1.9770     1.2690 hc         1 A0D       0.039700
     36 H14          5.1560    -0.7630    -0.7650 hc         1 A0D       0.049200
     37 H15          3.1540    -1.1330    -2.2410 hc         1 A0D       0.040700
     38 H15A         3.3020    -2.4390    -1.0710 hc         1 A0D       0.040700
     39 H16          0.9310    -1.6340    -1.1870 hc         1 A0D       0.061700
     40 H17          1.7850    -2.4930     1.0140 hc         1 A0D       0.040700
     41 H17A         0.5920    -1.2330     1.2830 hc         1 A0D       0.040700
     42 H18          3.9310     1.2640    -1.6110 hc         1 A0D       0.040700
     43 H18A         4.6040     1.5770    -0.0160 hc         1 A0D       0.040700
     44 H19         -1.8680    -1.4640     0.5800 h1         1 A0D       0.024200
     45 H19A        -2.5450    -0.5460     1.9290 h1         1 A0D       0.024200
     46 H20         -4.6580    -1.8680     1.7880 hc         1 A0D       0.038700
     47 H20A        -4.0420    -2.7200     0.3500 hc         1 A0D       0.038700
     48 H20B        -3.2570    -2.9460     1.9280 hc         1 A0D       0.038700
@<TRIPOS>BOND
     1     1     2 1   
     2     1    10 1   
     3     1    21 1   
     4     2     3 1   
     5     2     4 2   
     6     3     5 1   
     7     3     8 1   
     8     3    22 1   
     9     5     6 1   
    10     5    19 1   
    11     6     7 1   
    12     6    23 1   
    13     6    24 1   
    14     7     8 1   
    15     7    25 1   
    16     7    26 1   
    17     8    27 1   
    18     8    28 1   
    19     9    10 1   
    20     9    11 1   
    21     9    18 1   
    22     9    29 1   
    23    10    16 1   
    24    10    30 1   
    25    11    12 1   
    26    11    31 1   
    27    11    32 1   
    28    12    13 1   
    29    12    17 1   
    30    12    33 1   
    31    13    14 1   
    32    13    34 1   
    33    13    35 1   
    34    14    15 1   
    35    14    18 1   
    36    14    36 1   
    37    15    16 1   
    38    15    37 1   
    39    15    38 1   
    40    16    17 1   
    41    16    39 1   
    42    17    40 1   
    43    17    41 1   
    44    18    42 1   
    45    18    43 1   
    46    19    20 1   
    47    19    44 1   
    48    19    45 1   
    49    20    46 1   
    50    20    47 1   
    51    20    48 1   
@<TRIPOS>SUBSTRUCTURE
     1 A0D         1 TEMP              0 ****  ****    0 ROOT
