@<TRIPOS>MOLECULE
A0D
   48    51     1     0     0
SMALL
bcc


@<TRIPOS>ATOM
      1 N1           0.0150     0.5830    -0.0060 ns         1 A0D      -0.579900
      2 C2          -1.1660     0.2700    -0.5640 c          1 A0D       0.664100
      3 C3          -2.3790     0.7850     0.2020 c5         1 A0D       0.110500
      4 O4          -1.2720    -0.3220    -1.6270 o          1 A0D      -0.580100
      5 N5          -3.4850    -0.1460     0.1040 n3         1 A0D      -0.730600
      6 C6          -4.7060     0.6040    -0.1130 c5         1 A0D       0.181800
      7 C7          -4.2460     1.7270    -1.0240 c5         1 A0D      -0.083400
      8 C8          -2.8970     2.1060    -0.4160 c5         1 A0D      -0.077400
      9 C9           2.3670     1.2820    -0.1460 c6         1 A0D      -0.073700
     10 C10          1.2960     0.2910    -0.6180 c6         1 A0D       0.122700
     11 C11          2.6730     1.0920     1.3440 c6         1 A0D      -0.067650
     12 C12          3.1480    -0.3410     1.5950 c6         1 A0D      -0.061700
     13 C13          4.4230    -0.5980     0.7870 c6         1 A0D      -0.067400
     14 C14          4.1370    -0.4040    -0.7040 c6         1 A0D      -0.061700
     15 C15          3.0520    -1.3910    -1.1430 c6         1 A0D      -0.067650
     16 C16          1.7740    -1.1430    -0.3390 c6         1 A0D      -0.073700
     17 C17          2.0610    -1.3240     1.1520 c6         1 A0D      -0.067650
     18 C18          3.6430     1.0240    -0.9520 c6         1 A0D      -0.067650
     19 C19         -3.5130    -1.1440     1.1470 c3         1 A0D       0.188800
     20 C20         -4.5210    -2.2490     0.8800 c3         1 A0D      -0.091100
     21 HN1          0.0040     1.0520     0.8850 hn         1 A0D       0.307500
     22 H3          -2.0930     0.9670     1.2500 h1         1 A0D       0.027700
     23 H6          -5.4780    -0.0190    -0.5690 h1         1 A0D       0.035200
     24 H6A         -5.1260     1.0140     0.8230 h1         1 A0D       0.035200
     25 H7          -4.1140     1.3560    -2.0410 hc         1 A0D       0.058200
     26 H7A         -4.9460     2.5620    -1.0570 hc         1 A0D       0.058200
     27 H8          -3.0310     2.8450     0.3750 hc         1 A0D       0.049200
     28 H8A         -2.2100     2.5390    -1.1430 hc         1 A0D       0.049200
     29 H9           2.0160     2.3020    -0.3300 hc         1 A0D       0.061700
     30 H10          1.1700     0.4100    -1.6990 h1         1 A0D       0.071700
     31 H11          3.4480     1.8040     1.6430 hc         1 A0D       0.040700
     32 H11A         1.8030     1.3230     1.9690 hc         1 A0D       0.040700
     33 H12          3.3550    -0.4780     2.6600 hc         1 A0D       0.049200
     34 H13          5.2180     0.0810     1.1120 hc         1 A0D       0.039700
     35 H13A         4.7840    -1.6160     0.9690 hc         1 A0D       0.039700
     36 H14          5.0490    -0.5810    -1.2820 hc         1 A0D       0.049200
     37 H15          2.8510    -1.2780    -2.2140 hc         1 A0D       0.040700
     38 H15A         3.3920    -2.4210    -0.9940 hc         1 A0D       0.040700
     39 H16          0.9960    -1.8430    -0.6580 hc         1 A0D       0.061700
     40 H17          2.3880    -2.3520     1.3400 hc         1 A0D       0.040700
     41 H17A         1.1510    -1.1800     1.7420 hc         1 A0D       0.040700
     42 H18          3.4510     1.1730    -2.0190 hc         1 A0D       0.040700
     43 H18A         4.4130     1.7480    -0.6670 hc         1 A0D       0.040700
     44 H19         -2.5170    -1.5900     1.2180 h1         1 A0D       0.024200
     45 H19A        -3.7190    -0.6930     2.1340 h1         1 A0D       0.024200
     46 H20         -5.5460    -1.8770     0.8770 hc         1 A0D       0.038700
     47 H20A        -4.3310    -2.7210    -0.0850 hc         1 A0D       0.038700
     48 H20B        -4.4530    -3.0150     1.6530 hc         1 A0D       0.038700
@<TRIPOS>BOND
     1     1     2 1   
     2     1    10 1   
     3     1    21 1   
     4     2     3 1   
     5     2     4 2   
     6     3     5 1   
     7     3     8 1   
     8     3    22 1   
     9     5     6 1   
    10     5    19 1   
    11     6     7 1   
    12     6    23 1   
    13     6    24 1   
    14     7     8 1   
    15     7    25 1   
    16     7    26 1   
    17     8    27 1   
    18     8    28 1   
    19     9    10 1   
    20     9    11 1   
    21     9    18 1   
    22     9    29 1   
    23    10    16 1   
    24    10    30 1   
    25    11    12 1   
    26    11    31 1   
    27    11    32 1   
    28    12    13 1   
    29    12    17 1   
    30    12    33 1   
    31    13    14 1   
    32    13    34 1   
    33    13    35 1   
    34    14    15 1   
    35    14    18 1   
    36    14    36 1   
    37    15    16 1   
    38    15    37 1   
    39    15    38 1   
    40    16    17 1   
    41    16    39 1   
    42    17    40 1   
    43    17    41 1   
    44    18    42 1   
    45    18    43 1   
    46    19    20 1   
    47    19    44 1   
    48    19    45 1   
    49    20    46 1   
    50    20    47 1   
    51    20    48 1   
@<TRIPOS>SUBSTRUCTURE
     1 A0D         1 TEMP              0 ****  ****    0 ROOT
