@<TRIPOS>MOLECULE
A0E
   68    72     1     0     0
SMALL
No Charge or Current Charge


@<TRIPOS>ATOM
      1 C4          92.2970    17.4870   214.0700 ca         1 A0E       0.460900
      2 C5          93.1460    18.5400   213.7400 ca         1 A0E      -0.380900
      3 C6          93.1740    19.0360   212.4720 ca         1 A0E       0.163500
      4 N1          92.3890    18.5360   211.4980 nb         1 A0E      -0.217000
      5 N3          91.5000    16.9630   213.1140 nb         1 A0E      -0.312000
      6 C2          91.5850    17.5140   211.8770 ca         1 A0E       0.194900
      7 CAA         88.4970    14.9210   218.7790 ca         1 A0E       0.097100
      8 CAB         87.2370    15.0080   219.4200 ca         1 A0E      -0.153000
      9 CAC         86.5750    16.2440   219.5110 ca         1 A0E      -0.138000
     10 CAD         87.1600    17.3930   218.9640 ca         1 A0E       0.163000
     11 CAE         88.4050    17.3240   218.3270 ca         1 A0E      -0.187000
     12 CAF         89.0900    16.0980   218.2290 ca         1 A0E       0.302000
     13 CAI         88.6460    12.4830   219.2210 c3         1 A0E       0.146900
     14 CAK         91.3980    17.1070   217.8090 c6         1 A0E       0.190800
     15 CAL         91.8270    17.8600   216.5040 c6         1 A0E       0.184300
     16 CAN         91.8860    15.5080   215.5920 c6         1 A0E       0.184300
     17 CAO         90.4930    15.3100   216.2740 c6         1 A0E       0.190800
     18 CAV         94.1250    19.2670   214.4990 cc         1 A0E       0.381800
     19 CAY         94.4810    20.8000   211.4000 ca         1 A0E       0.033800
     20 CAZ         93.6630    21.8580   210.9230 ca         1 A0E      -0.096300
     21 CBA         94.0730    22.5850   209.7860 ca         1 A0E      -0.100000
     22 CBB         95.2760    22.2740   209.1310 ca         1 A0E      -0.099000
     23 CBC         96.0840    21.2300   209.6060 ca         1 A0E      -0.104000
     24 CBD         95.6860    20.4970   210.7360 ca         1 A0E      -0.092000
     25 CBE         92.3480    22.2490   211.6040 c3         1 A0E       0.209100
     26 CBG         93.3800    23.4080   213.5660 c3         1 A0E       0.169800
     27 CBH         93.5370    24.7890   214.2220 c3         1 A0E      -0.139400
     28 CBI         94.4570    25.6800   213.3940 c          1 A0E       0.589100
     29 CBK         94.5030    27.3590   211.6650 c3         1 A0E       0.151900
     30 NAJ         90.3460    16.0640   217.5640 nh         1 A0E      -0.799400
     31 NAM         92.2270    16.9560   215.3710 nh         1 A0E      -0.758300
     32 NAW         94.7410    20.1930   213.7530 nd         1 A0E      -0.511100
     33 NAX         94.1240    20.0390   212.5140 na         1 A0E       0.061100
     34 NBF         92.5030    23.4970   212.3810 n7         1 A0E      -0.865400
     35 OAH         89.1740    13.7110   218.6890 os         1 A0E      -0.335100
     36 OBJ         93.7580    26.4730   212.5210 os         1 A0E      -0.445100
     37 OBL         95.6770    25.6720   213.4960 o          1 A0E      -0.498000
     38 H1          90.9410    17.0910   211.1090 h5         1 A0E       0.046100
     39 H2          86.7590    14.1340   219.8540 ha         1 A0E       0.121000
     40 H3          85.6070    16.3130   220.0020 ha         1 A0E       0.134000
     41 H4          88.8290    18.2240   217.8960 ha         1 A0E       0.128000
     42 H5          89.3440    11.6580   219.0350 h1         1 A0E       0.040367
     43 H6          88.4930    12.5610   220.3050 h1         1 A0E       0.040367
     44 H7          87.6890    12.2310   218.7450 h1         1 A0E       0.040367
     45 H8          92.2880    16.6300   218.2460 h1         1 A0E       0.063700
     46 H9          91.0560    17.8460   218.5480 h1         1 A0E       0.063700
     47 H10         92.6520    18.5380   216.7620 h1         1 A0E       0.064700
     48 H11         90.9830    18.4890   216.1860 h1         1 A0E       0.064700
     49 H12         91.9020    14.9440   214.6490 h1         1 A0E       0.064700
     50 H13         92.6560    15.0460   216.2280 h1         1 A0E       0.064700
     51 H14         89.7170    15.6360   215.5660 h1         1 A0E       0.063700
     52 H15         90.3440    14.2330   216.4410 h1         1 A0E       0.063700
     53 H16         94.4400    19.1720   215.5290 h4         1 A0E       0.047800
     54 H17         93.4560    23.3970   209.4070 ha         1 A0E       0.117000
     55 H18         95.5810    22.8420   208.2550 ha         1 A0E       0.117000
     56 H19         97.0160    20.9880   209.1000 ha         1 A0E       0.118000
     57 H20         96.3160    19.6880   211.1000 ha         1 A0E       0.127000
     58 H21         91.5870    22.3880   210.8230 h1         1 A0E       0.064700
     59 H22         91.9810    21.4390   212.2480 h1         1 A0E       0.064700
     60 H23         92.9480    22.7120   214.2990 h1         1 A0E       0.048200
     61 H24         94.3760    23.0280   213.2990 h1         1 A0E       0.048200
     62 H25         93.9780    24.6510   215.2150 hc         1 A0E       0.082200
     63 H26         92.5430    25.2420   214.3000 hc         1 A0E       0.082200
     64 H27         93.8220    27.9310   211.0220 h1         1 A0E       0.046700
     65 H28         95.0910    28.0720   212.2570 h1         1 A0E       0.046700
     66 H29         95.1870    26.7940   211.0190 h1         1 A0E       0.046700
     67 H30         92.8810    24.2130   211.7490 hn         1 A0E       0.421000
     68 FAG         86.5160    18.5770   219.0460 f          1 A0E      -0.184000
@<TRIPOS>BOND
     1     1     2 ar  
     2     1     5 ar  
     3     1    31 1   
     4     2     3 ar  
     5     2    18 1   
     6     3     4 ar  
     7     3    33 1   
     8     4     6 ar  
     9     5     6 ar  
    10     6    38 1   
    11     7     8 ar  
    12     7    12 ar  
    13     7    35 1   
    14     8     9 ar  
    15     8    39 1   
    16     9    10 ar  
    17     9    40 1   
    18    10    11 ar  
    19    10    68 1   
    20    11    12 ar  
    21    11    41 1   
    22    12    30 1   
    23    13    35 1   
    24    13    42 1   
    25    13    43 1   
    26    13    44 1   
    27    14    15 1   
    28    14    30 1   
    29    14    45 1   
    30    14    46 1   
    31    15    31 1   
    32    15    47 1   
    33    15    48 1   
    34    16    17 1   
    35    16    31 1   
    36    16    49 1   
    37    16    50 1   
    38    17    30 1   
    39    17    51 1   
    40    17    52 1   
    41    18    32 2   
    42    18    53 1   
    43    19    20 ar  
    44    19    24 ar  
    45    19    33 1   
    46    20    21 ar  
    47    20    25 1   
    48    21    22 ar  
    49    21    54 1   
    50    22    23 ar  
    51    22    55 1   
    52    23    24 ar  
    53    23    56 1   
    54    24    57 1   
    55    25    34 1   
    56    25    58 1   
    57    25    59 1   
    58    26    27 1   
    59    26    34 1   
    60    26    60 1   
    61    26    61 1   
    62    27    28 1   
    63    27    62 1   
    64    27    63 1   
    65    28    36 1   
    66    28    37 2   
    67    29    36 1   
    68    29    64 1   
    69    29    65 1   
    70    29    66 1   
    71    32    33 1   
    72    34    67 1   
@<TRIPOS>SUBSTRUCTURE
     1 A0E         1 TEMP              0 ****  ****    0 ROOT
