@<TRIPOS>MOLECULE
A0E
   68    72     1     0     0
SMALL
abcg2


@<TRIPOS>ATOM
      1 C4          93.2590    16.6600   214.6390 ca         1 A0E       0.460900
      2 C5          93.8430    17.8940   214.2450 ca         1 A0E      -0.380900
      3 C6          93.5470    18.3070   212.9420 ca         1 A0E       0.163500
      4 N1          92.8180    17.6470   212.0400 nb         1 A0E      -0.217000
      5 N3          92.5590    15.9820   213.7230 nb         1 A0E      -0.312000
      6 C2          92.3850    16.4950   212.5110 ca         1 A0E       0.194900
      7 CAA         89.0970    17.0900   217.1100 ca         1 A0E       0.097100
      8 CAB         88.2180    18.1040   216.7650 ca         1 A0E      -0.153000
      9 CAC         88.6580    19.4130   216.5770 ca         1 A0E      -0.138000
     10 CAD         89.9960    19.6680   216.7400 ca         1 A0E       0.163000
     11 CAE         90.9100    18.6720   217.0370 ca         1 A0E      -0.187000
     12 CAF         90.4860    17.3570   217.2180 ca         1 A0E       0.302000
     13 CAI         87.3490    15.4920   217.2750 c3         1 A0E       0.146900
     14 CAK         92.6480    16.6290   218.1250 c6         1 A0E       0.190800
     15 CAL         93.7270    16.8820   217.0460 c6         1 A0E       0.184300
     16 CAN         92.7560    14.8540   216.1870 c6         1 A0E       0.184300
     17 CAO         91.3560    15.1010   216.7600 c6         1 A0E       0.190800
     18 CAV         94.7150    18.9030   214.7350 cc         1 A0E       0.381800
     19 CAY         94.1980    20.2860   211.5860 ca         1 A0E       0.033800
     20 CAZ         93.0400    20.9140   211.1330 ca         1 A0E      -0.096300
     21 CBA         93.1420    21.6860   209.9750 ca         1 A0E      -0.100000
     22 CBB         94.3440    21.8400   209.3040 ca         1 A0E      -0.099000
     23 CBC         95.4880    21.2130   209.7820 ca         1 A0E      -0.104000
     24 CBD         95.4110    20.4300   210.9200 ca         1 A0E      -0.092000
     25 CBE         91.7060    20.8780   211.8530 c3         1 A0E       0.209100
     26 CBG         92.2890    22.2140   213.8040 c3         1 A0E       0.169800
     27 CBH         91.8320    23.3540   214.6970 c3         1 A0E      -0.139400
     28 CBI         92.0710    24.7220   214.1150 c          1 A0E       0.589100
     29 CBK         91.7240    27.0260   214.4630 c3         1 A0E       0.151900
     30 NAJ         91.3530    16.3260   217.5610 nh         1 A0E      -0.799400
     31 NAM         93.3790    16.1210   215.8610 nh         1 A0E      -0.758300
     32 NAW         94.9010    19.8340   213.8370 nd         1 A0E      -0.511100
     33 NAX         94.1780    19.4850   212.7540 na         1 A0E       0.061100
     34 NBF         91.4220    22.0550   212.6530 n7         1 A0E      -0.865400
     35 OAH         88.7150    15.8260   217.3900 os         1 A0E      -0.335100
     36 OBJ         91.5450    25.6720   214.8760 os         1 A0E      -0.445100
     37 OBL         92.6800    24.9480   213.0980 o          1 A0E      -0.498000
     38 H1          91.8060    15.8850   211.8260 h5         1 A0E       0.046100
     39 H2          87.1590    17.9040   216.6700 ha         1 A0E       0.121000
     40 H3          87.9600    20.2010   216.3300 ha         1 A0E       0.134000
     41 H4          91.9540    18.9420   217.1180 ha         1 A0E       0.128000
     42 H5          87.2660    14.4390   217.5320 h1         1 A0E       0.040367
     43 H6          86.7250    16.0720   217.9620 h1         1 A0E       0.040367
     44 H7          86.9760    15.6360   216.2570 h1         1 A0E       0.040367
     45 H8          92.9460    15.7860   218.7520 h1         1 A0E       0.063700
     46 H9          92.5790    17.4920   218.7870 h1         1 A0E       0.063700
     47 H10         94.7100    16.5900   217.4250 h1         1 A0E       0.064700
     48 H11         93.7710    17.9400   216.8070 h1         1 A0E       0.064700
     49 H12         92.6960    14.2190   215.3080 h1         1 A0E       0.064700
     50 H13         93.3990    14.3480   216.9100 h1         1 A0E       0.064700
     51 H14         90.6600    15.2030   215.9300 h1         1 A0E       0.063700
     52 H15         91.0490    14.2320   217.3490 h1         1 A0E       0.063700
     53 H16         95.2190    18.9770   215.6850 h4         1 A0E       0.047800
     54 H17         92.2540    22.1780   209.5960 ha         1 A0E       0.117000
     55 H18         94.3890    22.4460   208.4080 ha         1 A0E       0.117000
     56 H19         96.4320    21.3240   209.2650 ha         1 A0E       0.118000
     57 H20         96.2890    19.9240   211.2990 ha         1 A0E       0.127000
     58 H21         90.9190    20.7800   211.1030 h1         1 A0E       0.064700
     59 H22         91.6200    20.0030   212.4960 h1         1 A0E       0.064700
     60 H23         92.2360    21.2940   214.3900 h1         1 A0E       0.048200
     61 H24         93.3480    22.3510   213.5470 h1         1 A0E       0.048200
     62 H25         92.3630    23.3050   215.6520 hc         1 A0E       0.082200
     63 H26         90.7710    23.2450   214.9350 hc         1 A0E       0.082200
     64 H27         91.2220    27.6350   215.2090 h1         1 A0E       0.046700
     65 H28         92.7790    27.2980   214.4290 h1         1 A0E       0.046700
     66 H29         91.2750    27.2090   213.4870 h1         1 A0E       0.046700
     67 H30         91.4730    22.8790   212.0650 hn         1 A0E       0.421000
     68 FAG         90.4550    20.9270   216.5940 f          1 A0E      -0.184000
@<TRIPOS>BOND
     1     1     2 ar  
     2     1     5 ar  
     3     1    31 1   
     4     2     3 ar  
     5     2    18 1   
     6     3     4 ar  
     7     3    33 1   
     8     4     6 ar  
     9     5     6 ar  
    10     6    38 1   
    11     7     8 ar  
    12     7    12 ar  
    13     7    35 1   
    14     8     9 ar  
    15     8    39 1   
    16     9    10 ar  
    17     9    40 1   
    18    10    11 ar  
    19    10    68 1   
    20    11    12 ar  
    21    11    41 1   
    22    12    30 1   
    23    13    35 1   
    24    13    42 1   
    25    13    43 1   
    26    13    44 1   
    27    14    15 1   
    28    14    30 1   
    29    14    45 1   
    30    14    46 1   
    31    15    31 1   
    32    15    47 1   
    33    15    48 1   
    34    16    17 1   
    35    16    31 1   
    36    16    49 1   
    37    16    50 1   
    38    17    30 1   
    39    17    51 1   
    40    17    52 1   
    41    18    32 2   
    42    18    53 1   
    43    19    20 ar  
    44    19    24 ar  
    45    19    33 1   
    46    20    21 ar  
    47    20    25 1   
    48    21    22 ar  
    49    21    54 1   
    50    22    23 ar  
    51    22    55 1   
    52    23    24 ar  
    53    23    56 1   
    54    24    57 1   
    55    25    34 1   
    56    25    58 1   
    57    25    59 1   
    58    26    27 1   
    59    26    34 1   
    60    26    60 1   
    61    26    61 1   
    62    27    28 1   
    63    27    62 1   
    64    27    63 1   
    65    28    36 1   
    66    28    37 2   
    67    29    36 1   
    68    29    64 1   
    69    29    65 1   
    70    29    66 1   
    71    32    33 1   
    72    34    67 1   
@<TRIPOS>SUBSTRUCTURE
     1 A0E         1 TEMP              0 ****  ****    0 ROOT
