@<TRIPOS>MOLECULE
A0F
   46    49     1     0     0
SMALL
bcc


@<TRIPOS>ATOM
      1 C13        -33.8190   -27.8730     4.7360 cc         1 A0F       0.360200
      2 C15        -35.9700   -28.1880     4.3970 cd         1 A0F       0.515900
      3 C17        -37.2150   -28.8800     4.0760 ca         1 A0F      -0.178500
      4 C20        -39.5760   -30.2540     3.4780 ca         1 A0F       0.156100
      5 C22        -41.9200   -30.4320     3.2780 ca         1 A0F       0.094100
      6 C24        -43.7420   -29.6360     4.6100 ca         1 A0F      -0.117000
      7 C26        -43.9260   -29.6720     2.2150 ca         1 A0F      -0.117000
      8 C28        -38.3790   -30.9510     3.6300 ca         1 A0F      -0.185000
      9 C05        -33.8950   -22.2860     1.7420 ca         1 A0F       0.345600
     10 C07        -32.9710   -24.2880     1.2820 ca         1 A0F       0.442200
     11 C08        -33.0930   -24.7160     2.5920 ca         1 A0F      -0.308300
     12 C09        -33.6660   -23.8530     3.5360 ca         1 A0F       0.232600
     13 C12        -34.2190   -26.6020     4.9970 cd         1 A0F      -0.203700
     14 C18        -38.4200   -28.1990     3.9130 ca         1 A0F      -0.064000
     15 C19        -39.5940   -28.8710     3.6160 ca         1 A0F      -0.185000
     16 C23        -42.4600   -30.1590     4.5270 ca         1 A0F      -0.137500
     17 C25        -44.4770   -29.3890     3.4570 ca         1 A0F      -0.129000
     18 C27        -42.6400   -30.1900     2.1190 ca         1 A0F      -0.137500
     19 C29        -37.2160   -30.2690     3.9220 ca         1 A0F      -0.064000
     20 C30        -34.0770   -22.5880     3.0700 ca         1 A0F      -0.289300
     21 F01        -33.3120   -20.3490     0.5450 f          1 A0F      -0.229967
     22 F03        -35.3060   -21.1120     0.2810 f          1 A0F      -0.229967
     23 F04        -34.7700   -20.1130     2.1090 f          1 A0F      -0.229967
     24 N06        -33.3590   -23.1010     0.8380 nb         1 A0F      -0.667000
     25 N10        -33.8280   -24.1810     4.8350 nu         1 A0F      -0.785600
     26 N14        -34.8020   -28.7550     4.4050 nc         1 A0F      -0.649000
     27 O21        -40.6710   -30.9950     3.1730 os         1 A0F      -0.250200
     28 S16        -35.9260   -26.5030     4.8140 ss         1 A0F      -0.159300
     29 H131       -32.7900   -28.2060     4.7710 h4         1 A0F       0.041100
     30 H241       -44.1680   -29.4230     5.5820 ha         1 A0F       0.136000
     31 H261       -44.4930   -29.4850     1.3130 ha         1 A0F       0.136000
     32 H281       -38.3660   -32.0280     3.5200 ha         1 A0F       0.150500
     33 H071       -32.5300   -24.9550     0.5490 h4         1 A0F       0.025100
     34 H081       -32.7480   -25.7060     2.8560 ha         1 A0F       0.151000
     35 H112       -32.3490   -25.6300     5.2010 h1         1 A0F       0.061700
     36 H111       -33.4680   -25.2970     6.5050 h1         1 A0F       0.061700
     37 H181       -38.4640   -27.1210     4.0070 ha         1 A0F       0.145000
     38 H191       -40.5070   -28.3050     3.4900 ha         1 A0F       0.150500
     39 H231       -41.8880   -30.3580     5.4250 ha         1 A0F       0.147500
     40 H251       -45.4780   -28.9840     3.5270 ha         1 A0F       0.136000
     41 H271       -42.2030   -30.4100     1.1530 ha         1 A0F       0.147500
     42 H291       -36.2950   -30.8230     4.0430 ha         1 A0F       0.145000
     43 H301       -34.5230   -21.8820     3.7590 ha         1 A0F       0.153000
     44 H101       -34.2130   -23.4850     5.4520 hn         1 A0F       0.444800
     45 C11        -33.4010   -25.4220     5.4230 c3         1 A0F       0.314100
     46 C02        -34.3220   -20.9580     1.1760 c3         1 A0F       0.626600
@<TRIPOS>BOND
     1     1    13 2   
     2     1    26 1   
     3     1    29 1   
     4     2     3 1   
     5     2    26 2   
     6     2    28 1   
     7     3    14 ar  
     8     3    19 ar  
     9     4     8 ar  
    10     4    15 ar  
    11     4    27 1   
    12     5    16 ar  
    13     5    18 ar  
    14     5    27 1   
    15     6    16 ar  
    16     6    17 ar  
    17     6    30 1   
    18     7    17 ar  
    19     7    18 ar  
    20     7    31 1   
    21     8    19 ar  
    22     8    32 1   
    23     9    20 ar  
    24     9    24 ar  
    25     9    46 1   
    26    10    11 ar  
    27    10    24 ar  
    28    10    33 1   
    29    11    12 ar  
    30    11    34 1   
    31    12    20 ar  
    32    12    25 1   
    33    13    28 1   
    34    13    45 1   
    35    14    15 ar  
    36    14    37 1   
    37    15    38 1   
    38    16    39 1   
    39    17    40 1   
    40    18    41 1   
    41    19    42 1   
    42    20    43 1   
    43    21    46 1   
    44    22    46 1   
    45    23    46 1   
    46    25    44 1   
    47    25    45 1   
    48    35    45 1   
    49    36    45 1   
@<TRIPOS>SUBSTRUCTURE
     1 A0F         1 TEMP              0 ****  ****    0 ROOT
