@<TRIPOS>MOLECULE
A0F
   46    49     1     0     0
SMALL
No Charge or Current Charge


@<TRIPOS>ATOM
      1 C13        -34.0920   -27.2880     4.4770 cc         1 A0F       0.294900
      2 C15        -36.2670   -27.5920     4.1840 cd         1 A0F       0.515900
      3 C17        -37.5060   -28.2350     3.6770 ca         1 A0F      -0.178500
      4 C20        -39.8620   -29.4750     2.7060 ca         1 A0F       0.156100
      5 C22        -42.1600   -30.1970     2.9280 ca         1 A0F       0.094100
      6 C24        -43.3510   -30.5900     5.0190 ca         1 A0F      -0.099000
      7 C26        -44.5960   -30.1980     2.9620 ca         1 A0F      -0.099000
      8 C28        -38.6060   -30.0070     2.3900 ca         1 A0F      -0.167000
      9 C05        -33.3430   -22.9370     1.6320 ca         1 A0F       0.280300
     10 C07        -31.6180   -24.4200     2.1350 ca         1 A0F       0.376900
     11 C08        -32.0670   -24.5740     3.4500 ca         1 A0F      -0.225000
     12 C09        -33.2040   -23.8760     3.8570 ca         1 A0F       0.371000
     13 C12        -34.5430   -26.2250     5.2170 cd         1 A0F      -0.283300
     14 C18        -38.7810   -27.6980     3.9760 ca         1 A0F      -0.046000
     15 C19        -39.9480   -28.3120     3.4910 ca         1 A0F      -0.167000
     16 C23        -42.1420   -30.4670     4.3120 ca         1 A0F      -0.119500
     17 C25        -44.5770   -30.4530     4.3450 ca         1 A0F      -0.111000
     18 C27        -43.3870   -30.0740     2.2540 ca         1 A0F      -0.119500
     19 C29        -37.4350   -29.3980     2.8730 ca         1 A0F      -0.046000
     20 C30        -33.8470   -23.0440     2.9400 ca         1 A0F      -0.206000
     21 F01        -33.4560   -22.0120    -0.6090 f          1 A0F      -0.108667
     22 F03        -35.3360   -22.4100     0.4060 f          1 A0F      -0.108667
     23 F04        -34.0950   -20.7400     1.0320 f          1 A0F      -0.108667
     24 N06        -32.2370   -23.6220     1.2380 nb         1 A0F      -0.667000
     25 N10        -33.7010   -23.9910     5.1520 nu         1 A0F      -0.979200
     26 N14        -35.0590   -28.0640     3.8910 nc         1 A0F      -0.649000
     27 O21        -40.9920   -30.0850     2.2090 os         1 A0F      -0.250200
     28 S16        -36.2960   -26.1580     5.2150 ss         1 A0F      -0.014400
     29 H131       -33.0560   -27.5570     4.3180 h4         1 A0F       0.041100
     30 H241       -43.3380   -30.7950     6.0880 ha         1 A0F       0.118000
     31 H261       -45.5460   -30.0970     2.4400 ha         1 A0F       0.118000
     32 H281       -38.5390   -30.8990     1.7720 ha         1 A0F       0.132500
     33 H071       -30.7330   -24.9500     1.7850 h4         1 A0F       0.025100
     34 H081       -31.5280   -25.2220     4.1310 ha         1 A0F       0.133000
     35 H112       -32.7010   -25.6020     6.1150 h1         1 A0F       0.061700
     36 H111       -34.1650   -25.0270     6.9440 h1         1 A0F       0.061700
     37 H181       -38.8840   -26.8000     4.5820 ha         1 A0F       0.127000
     38 H191       -40.9180   -27.8790     3.7220 ha         1 A0F       0.132500
     39 H231       -41.1970   -30.5850     4.8360 ha         1 A0F       0.129500
     40 H251       -45.5130   -30.5500     4.8930 ha         1 A0F       0.118000
     41 H271       -43.4000   -29.8790     1.1850 ha         1 A0F       0.129500
     42 H291       -36.4730   -29.8370     2.6160 ha         1 A0F       0.127000
     43 H301       -34.7340   -22.4890     3.2290 ha         1 A0F       0.135000
     44 H101       -34.4530   -23.3340     5.3670 hn         1 A0F       0.500000
     45 C11        -33.7180   -25.2170     5.9570 c3         1 A0F       0.314100
     46 C02        -34.0540   -22.0250     0.6080 c3         1 A0F       0.262700
@<TRIPOS>BOND
     1     1    13 2   
     2     1    26 1   
     3     1    29 1   
     4     2     3 1   
     5     2    26 2   
     6     2    28 1   
     7     3    14 ar  
     8     3    19 ar  
     9     4     8 ar  
    10     4    15 ar  
    11     4    27 1   
    12     5    16 ar  
    13     5    18 ar  
    14     5    27 1   
    15     6    16 ar  
    16     6    17 ar  
    17     6    30 1   
    18     7    17 ar  
    19     7    18 ar  
    20     7    31 1   
    21     8    19 ar  
    22     8    32 1   
    23     9    20 ar  
    24     9    24 ar  
    25     9    46 1   
    26    10    11 ar  
    27    10    24 ar  
    28    10    33 1   
    29    11    12 ar  
    30    11    34 1   
    31    12    20 ar  
    32    12    25 1   
    33    13    28 1   
    34    13    45 1   
    35    14    15 ar  
    36    14    37 1   
    37    15    38 1   
    38    16    39 1   
    39    17    40 1   
    40    18    41 1   
    41    19    42 1   
    42    20    43 1   
    43    21    46 1   
    44    22    46 1   
    45    23    46 1   
    46    25    44 1   
    47    25    45 1   
    48    35    45 1   
    49    36    45 1   
@<TRIPOS>SUBSTRUCTURE
     1 A0F         1 TEMP              0 ****  ****    0 ROOT
