@<TRIPOS>MOLECULE
A0G
   11    10     1     0     0
SMALL
bcc


@<TRIPOS>ATOM
      1 CCC         -1.1300    -0.1810     0.0230 c          1 A0G       0.925800
      2 O           -1.3750    -1.4030     0.0890 o          1 A0G      -0.833800
      3 CCB          0.3200     0.2470    -0.0700 ce         1 A0G      -0.040200
      4 NCA          0.5690     1.6120    -0.2660 nv         1 A0G      -0.793600
      5 CEU          1.2960    -0.6640     0.0080 c2         1 A0G      -0.118900
      6 OEV          2.6100    -0.2980    -0.0690 oh         1 A0G      -0.540100
      7 H31          1.0710    -1.7140     0.1300 h4         1 A0G       0.137000
      8 OXT         -1.9680     0.7450     0.0350 o          1 A0G      -0.833800
      9 H2          -0.2270     2.1580     0.0300 hn         1 A0G       0.358800
     10 H1           3.1620    -1.0610     0.1160 ho         1 A0G       0.382000
     11 H3           1.4050     1.9430     0.1930 hn         1 A0G       0.358800
@<TRIPOS>BOND
     1     1     2 1   
     2     1     3 1   
     3     1     8 1   
     4     3     4 1   
     5     3     5 2   
     6     4     9 1   
     7     4    11 1   
     8     5     6 1   
     9     5     7 1   
    10     6    10 1   
@<TRIPOS>SUBSTRUCTURE
     1 A0G         1 TEMP              0 ****  ****    0 ROOT
