@<TRIPOS>MOLECULE
A0G
   11    10     1     0     0
SMALL
No Charge or Current Charge


@<TRIPOS>ATOM
      1 CCC         -1.1810    -0.2110     0.0200 c          1 A0G       0.715200
      2 O           -1.4290    -1.4100     0.0730 o          1 A0G      -0.728500
      3 CCB          0.3010     0.2470    -0.0070 ce         1 A0G      -0.040200
      4 NCA          0.5580     1.6360    -0.0720 nv         1 A0G      -0.904000
      5 CEU          1.3190    -0.6480     0.0360 c2         1 A0G      -0.168900
      6 OEV          2.6290    -0.3000     0.0210 oh         1 A0G      -0.579100
      7 H31          1.1240    -1.7240     0.0870 h4         1 A0G       0.187000
      8 OXT         -2.0640     0.6390    -0.0100 o          1 A0G      -0.728500
      9 H2          -0.2140     2.2980    -0.0020 hn         1 A0G       0.414000
     10 H1           3.1760    -1.1190     0.0580 ho         1 A0G       0.421000
     11 H3           1.5140     1.9750     0.0140 hn         1 A0G       0.414000
@<TRIPOS>BOND
     1     1     2 1   
     2     1     3 1   
     3     1     8 1   
     4     3     4 1   
     5     3     5 2   
     6     4     9 1   
     7     4    11 1   
     8     5     6 1   
     9     5     7 1   
    10     6    10 1   
@<TRIPOS>SUBSTRUCTURE
     1 A0G         1 TEMP              0 ****  ****    0 ROOT
