@<TRIPOS>MOLECULE
A0H
   60    64     1     0     0
SMALL
abcg2


@<TRIPOS>ATOM
      1 CL          -7.3130     0.3690    -0.3420 cl         1 A0H      -0.105000
      2 C02         -6.0240    -0.7290    -0.3820 cc         1 A0H      -0.008100
      3 C03         -5.9920    -2.0850    -0.5960 cd         1 A0H      -0.019400
      4 N04         -4.7210    -2.5380    -0.5360 nd         1 A0H      -0.274600
      5 C05         -3.9830    -1.4770    -0.2910 cc         1 A0H      -0.171000
      6 N06         -4.7330    -0.3400    -0.1880 na         1 A0H       0.172100
      7 C07         -4.1730     0.8910     0.0590 cc         1 A0H      -0.211000
      8 C08         -2.8210     0.9350     0.1960 cd         1 A0H       0.434500
      9 C09         -2.0990     2.2020     0.4450 ca         1 A0H      -0.139500
     10 C10         -0.7150     2.1750     0.6110 ca         1 A0H      -0.067000
     11 C11          0.0120     3.3350     0.8430 ca         1 A0H      -0.117300
     12 C12          1.5050     3.2490     0.9790 c3         1 A0H       0.255100
     13 N13          2.1090     3.4090    -0.3500 n7         1 A0H      -0.868300
     14 S14          3.7200     3.1180    -0.5230 s6         1 A0H       1.192100
     15 O15          4.3880     3.7800     0.5870 o          1 A0H      -0.530000
     16 C16          3.9420     1.3610    -0.3310 c3         1 A0H      -0.388100
     17 O17          4.0710     3.4720    -1.8880 o          1 A0H      -0.530000
     18 C18         -0.6490     4.5560     0.9060 ca         1 A0H      -0.065000
     19 C19         -2.0280     4.5990     0.7460 ca         1 A0H      -0.117000
     20 C20         -2.7470     3.4370     0.5170 ca         1 A0H      -0.085000
     21 N21         -2.0370    -0.1740     0.1060 nd         1 A0H      -0.779000
     22 C22         -2.5690    -1.3390    -0.1270 cc         1 A0H       0.691900
     23 N23         -1.8270    -2.4620    -0.2290 nu         1 A0H      -0.924900
     24 C24         -0.4300    -2.5570    -0.1310 ca         1 A0H       0.256000
     25 C25          0.2460    -3.4160    -0.9940 ca         1 A0H      -0.095000
     26 C26          1.6150    -3.5820    -0.9100 ca         1 A0H      -0.149500
     27 C27          2.3780    -2.8890     0.0410 ca         1 A0H       0.286000
     28 N28          3.7640    -3.0400     0.0830 nh         1 A0H      -0.781400
     29 C29          4.5030    -2.2700     1.0630 c6         1 A0H       0.157800
     30 C30          5.9860    -2.3040     0.7460 c6         1 A0H       0.147600
     31 O31          6.4790    -3.6200     0.6720 os         1 A0H      -0.442000
     32 C32          5.7880    -4.3470    -0.3170 c6         1 A0H       0.147600
     33 C33          4.2970    -4.3900    -0.0430 c6         1 A0H       0.157800
     34 C34          1.6860    -2.0320     0.9050 ca         1 A0H      -0.149500
     35 C35          0.3100    -1.8690     0.8220 ca         1 A0H      -0.095000
     36 H03         -6.8340    -2.7320    -0.7860 h4         1 A0H       0.242000
     37 H07         -4.8440     1.7310     0.1260 h4         1 A0H       0.163000
     38 H10         -0.1980     1.2250     0.5600 ha         1 A0H       0.136000
     39 H12          1.8770     4.0390     1.6290 h1         1 A0H       0.059200
     40 H12A         1.7670     2.2900     1.4390 h1         1 A0H       0.059200
     41 HN13         1.5650     3.0090    -1.1080 hn         1 A0H       0.487000
     42 H16          3.3890     0.8430    -1.1100 h1         1 A0H       0.100367
     43 H16A         5.0060     1.1440    -0.4210 h1         1 A0H       0.100367
     44 H16B         3.5900     1.0560     0.6520 h1         1 A0H       0.100367
     45 H18         -0.0930     5.4670     1.0880 ha         1 A0H       0.125000
     46 H19         -2.5480     5.5460     0.8000 ha         1 A0H       0.120000
     47 H20         -3.8200     3.5130     0.3980 ha         1 A0H       0.112000
     48 HN23        -2.3180    -3.2870    -0.5410 hn         1 A0H       0.526000
     49 H25         -0.3050    -3.9580    -1.7540 ha         1 A0H       0.124000
     50 H26          2.0910    -4.2440    -1.6210 ha         1 A0H       0.116000
     51 H29          4.1840    -1.2270     1.0360 h1         1 A0H       0.046950
     52 H29A         4.3290    -2.6350     2.0870 h1         1 A0H       0.046950
     53 H30          6.1650    -1.7720    -0.2000 h1         1 A0H       0.054450
     54 H30A         6.5380    -1.7870     1.5320 h1         1 A0H       0.054450
     55 H32          5.9640    -3.9100    -1.3100 h1         1 A0H       0.054450
     56 H32A         6.1860    -5.3620    -0.3210 h1         1 A0H       0.054450
     57 H33          4.1040    -4.9730     0.8700 h1         1 A0H       0.046950
     58 H33A         3.8250    -4.9190    -0.8700 h1         1 A0H       0.046950
     59 H34          2.2020    -1.4910     1.6860 ha         1 A0H       0.116000
     60 H35         -0.1790    -1.2140     1.5280 ha         1 A0H       0.124000
@<TRIPOS>BOND
     1     1     2 1   
     2     2     3 2   
     3     2     6 1   
     4     3     4 1   
     5     3    36 1   
     6     4     5 2   
     7     5     6 1   
     8     5    22 1   
     9     6     7 1   
    10     7     8 2   
    11     7    37 1   
    12     8     9 1   
    13     8    21 1   
    14     9    10 ar  
    15     9    20 ar  
    16    10    11 ar  
    17    10    38 1   
    18    11    12 1   
    19    11    18 ar  
    20    12    13 1   
    21    12    39 1   
    22    12    40 1   
    23    13    14 1   
    24    13    41 1   
    25    14    15 2   
    26    14    16 1   
    27    14    17 2   
    28    16    42 1   
    29    16    43 1   
    30    16    44 1   
    31    18    19 ar  
    32    18    45 1   
    33    19    20 ar  
    34    19    46 1   
    35    20    47 1   
    36    21    22 2   
    37    22    23 1   
    38    23    24 1   
    39    23    48 1   
    40    24    25 ar  
    41    24    35 ar  
    42    25    26 ar  
    43    25    49 1   
    44    26    27 ar  
    45    26    50 1   
    46    27    28 1   
    47    27    34 ar  
    48    28    29 1   
    49    28    33 1   
    50    29    30 1   
    51    29    51 1   
    52    29    52 1   
    53    30    31 1   
    54    30    53 1   
    55    30    54 1   
    56    31    32 1   
    57    32    33 1   
    58    32    55 1   
    59    32    56 1   
    60    33    57 1   
    61    33    58 1   
    62    34    35 ar  
    63    34    59 1   
    64    35    60 1   
@<TRIPOS>SUBSTRUCTURE
     1 A0H         1 TEMP              0 ****  ****    0 ROOT
