@<TRIPOS>MOLECULE
A0H
   60    64     1     0     0
SMALL
No Charge or Current Charge


@<TRIPOS>ATOM
      1 Cl          -7.3760     0.3820    -0.6390 cl         1 A0H      -0.105000
      2 C02         -6.0280    -0.7120    -0.5190 cc         1 A0H      -0.008100
      3 C03         -6.0070    -2.0840    -0.6680 cd         1 A0H      -0.019400
      4 N04         -4.7100    -2.5790    -0.5030 nd         1 A0H      -0.274600
      5 C05         -3.9580    -1.5110    -0.2560 cc         1 A0H      -0.171000
      6 N06         -4.7250    -0.4150    -0.2480 na         1 A0H       0.172100
      7 C07         -4.2190     0.8650    -0.0760 cc         1 A0H      -0.211000
      8 C08         -2.8350     0.9590     0.1560 cd         1 A0H       0.434500
      9 C09         -2.1620     2.2760     0.3690 ca         1 A0H      -0.139500
     10 C10         -0.7700     2.3410     0.6420 ca         1 A0H      -0.067000
     11 C11         -0.1120     3.5710     0.8350 ca         1 A0H      -0.117300
     12 C12          1.3800     3.5950     1.1290 c3         1 A0H       0.255100
     13 N13          2.1310     3.6140    -0.1320 n7         1 A0H      -0.868300
     14 S14          3.7770     3.3870    -0.0800 s6         1 A0H       1.192100
     15 O15          4.2830     4.2160     1.0160 o          1 A0H      -0.530000
     16 C16          3.9200     1.6640     0.3610 c3         1 A0H      -0.388100
     17 O17          4.2580     3.5930    -1.4460 o          1 A0H      -0.530000
     18 C18         -0.8430     4.7680     0.7540 ca         1 A0H      -0.065000
     19 C19         -2.2190     4.7290     0.4860 ca         1 A0H      -0.117000
     20 C20         -2.8730     3.5000     0.2960 ca         1 A0H      -0.085000
     21 N21         -1.9940    -0.1710     0.1840 nd         1 A0H      -0.779000
     22 C22         -2.5820    -1.3210    -0.0180 cc         1 A0H       0.691900
     23 N23         -1.8050    -2.4370    -0.0380 nu         1 A0H      -0.924900
     24 C24         -0.4220    -2.6400     0.0040 ca         1 A0H       0.256000
     25 C25          0.1650    -3.5770    -0.8640 ca         1 A0H      -0.095000
     26 C26          1.5560    -3.7950    -0.8440 ca         1 A0H      -0.149500
     27 C27          2.3850    -3.0880     0.0480 ca         1 A0H       0.286000
     28 N28          3.7830    -3.3110     0.0460 nh         1 A0H      -0.781400
     29 C29          4.7400    -2.2410     0.4830 c6         1 A0H       0.157800
     30 C30          6.1770    -2.4700    -0.0740 c6         1 A0H       0.147600
     31 O31          6.6350    -3.8110     0.2210 os         1 A0H      -0.442000
     32 C32          5.7820    -4.8270    -0.3560 c6         1 A0H       0.147600
     33 C33          4.3260    -4.7020     0.1880 c6         1 A0H       0.157800
     34 C34          1.7920    -2.1610     0.9280 ca         1 A0H      -0.149500
     35 C35          0.4020    -1.9440     0.9110 ca         1 A0H      -0.095000
     36 H03         -6.8470    -2.7380    -0.8890 h4         1 A0H       0.242000
     37 H07         -4.9200     1.6820    -0.1190 h4         1 A0H       0.163000
     38 H10         -0.1770     1.4310     0.7100 ha         1 A0H       0.136000
     39 H12          1.6190     4.4790     1.7370 h1         1 A0H       0.059200
     40 H12A         1.6290     2.7120     1.7340 h1         1 A0H       0.059200
     41 HN13         1.8450     2.8050    -0.6770 hn         1 A0H       0.487000
     42 H16          3.3990     1.0710    -0.3970 h1         1 A0H       0.100367
     43 H16A         4.9880     1.4250     0.3750 h1         1 A0H       0.100367
     44 H16B         3.4820     1.5240     1.3540 h1         1 A0H       0.100367
     45 H18         -0.3460     5.7260     0.8960 ha         1 A0H       0.125000
     46 H19         -2.7830     5.6570     0.4230 ha         1 A0H       0.120000
     47 H20         -3.9380     3.5250     0.0850 ha         1 A0H       0.112000
     48 HN23        -2.3500    -3.2140    -0.4030 hn         1 A0H       0.526000
     49 H25         -0.4530    -4.1270    -1.5670 ha         1 A0H       0.124000
     50 H26          1.9920    -4.5060    -1.5400 ha         1 A0H       0.116000
     51 H29          4.3910    -1.2570     0.1390 h1         1 A0H       0.046950
     52 H29A         4.7890    -2.2080     1.5820 h1         1 A0H       0.046950
     53 H30          6.1830    -2.3180    -1.1630 h1         1 A0H       0.054450
     54 H30A         6.8710    -1.7450     0.3740 h1         1 A0H       0.054450
     55 H32          5.7810    -4.7190    -1.4500 h1         1 A0H       0.054450
     56 H32A         6.1870    -5.8190    -0.1130 h1         1 A0H       0.054450
     57 H33          4.3200    -4.9950     1.2480 h1         1 A0H       0.046950
     58 H33A         3.6970    -5.4260    -0.3490 h1         1 A0H       0.046950
     59 H34          2.4010    -1.6120     1.6400 ha         1 A0H       0.116000
     60 H35         -0.0350    -1.2370     1.6100 ha         1 A0H       0.124000
@<TRIPOS>BOND
     1     1     2 1   
     2     2     3 2   
     3     2     6 1   
     4     3     4 1   
     5     3    36 1   
     6     4     5 2   
     7     5     6 1   
     8     5    22 1   
     9     6     7 1   
    10     7     8 2   
    11     7    37 1   
    12     8     9 1   
    13     8    21 1   
    14     9    10 ar  
    15     9    20 ar  
    16    10    11 ar  
    17    10    38 1   
    18    11    12 1   
    19    11    18 ar  
    20    12    13 1   
    21    12    39 1   
    22    12    40 1   
    23    13    14 1   
    24    13    41 1   
    25    14    15 2   
    26    14    16 1   
    27    14    17 2   
    28    16    42 1   
    29    16    43 1   
    30    16    44 1   
    31    18    19 ar  
    32    18    45 1   
    33    19    20 ar  
    34    19    46 1   
    35    20    47 1   
    36    21    22 2   
    37    22    23 1   
    38    23    24 1   
    39    23    48 1   
    40    24    25 ar  
    41    24    35 ar  
    42    25    26 ar  
    43    25    49 1   
    44    26    27 ar  
    45    26    50 1   
    46    27    28 1   
    47    27    34 ar  
    48    28    29 1   
    49    28    33 1   
    50    29    30 1   
    51    29    51 1   
    52    29    52 1   
    53    30    31 1   
    54    30    53 1   
    55    30    54 1   
    56    31    32 1   
    57    32    33 1   
    58    32    55 1   
    59    32    56 1   
    60    33    57 1   
    61    33    58 1   
    62    34    35 ar  
    63    34    59 1   
    64    35    60 1   
@<TRIPOS>SUBSTRUCTURE
     1 A0H         1 TEMP              0 ****  ****    0 ROOT
