@<TRIPOS>MOLECULE
A0I
   42    43     1     0     0
SMALL
abcg2


@<TRIPOS>ATOM
      1 C1         134.7330   129.3150   124.4340 cc         1 A0I      -0.511600
      2 C2         135.6090   129.8920   125.2850 cd         1 A0I       0.080600
      3 C3         135.7650   127.8720   126.5590 c          1 A0I       0.708400
      4 C4         134.3730   127.9630   124.7060 cc         1 A0I       0.774500
      5 C5         137.1060   129.8070   127.2520 c5         1 A0I       0.293700
      6 C6         138.5440   129.4220   126.8620 c5         1 A0I       0.099300
      7 C7         138.9060   130.5890   125.9510 c5         1 A0I       0.207300
      8 C8         138.2480   131.7540   126.6950 c5         1 A0I       0.108300
      9 C9         137.9860   133.0000   125.8870 c3         1 A0I       0.236600
     10 N1         136.1200   129.2100   126.3340 n          1 A0I      -0.312000
     11 N2         134.8740   127.2950   125.7280 nd         1 A0I      -0.837100
     12 N3         133.5010   127.3390   123.9110 nv         1 A0I      -1.064200
     13 N4         138.4090   133.2480   122.4550 n7         1 A0I      -1.088600
     14 O1         136.2800   127.2770   127.4990 o          1 A0I      -0.636000
     15 O10        138.8440   134.0130   119.8860 o          1 A0I      -0.945833
     16 O11        135.8560   133.4050   122.7580 o          1 A0I      -0.886000
     17 O12        140.2580   130.7490   125.7100 oh         1 A0I      -0.813000
     18 O13        139.3950   129.4340   127.9770 oh         1 A0I      -0.688000
     19 O2         137.0290   131.1990   127.2000 os         1 A0I      -0.471000
     20 O3         137.2730   132.6860   124.7160 os         1 A0I      -0.628400
     21 O4         137.3250   135.1470   124.0040 o          1 A0I      -0.886000
     22 O5         140.2320   131.5230   123.2920 o          1 A0I      -0.904500
     23 O6         140.6160   134.0230   123.7420 o          1 A0I      -0.904500
     24 O7         140.6950   133.0180   121.3510 os         1 A0I      -0.739800
     25 O8         140.9010   135.4360   120.4760 o          1 A0I      -0.945833
     26 O9         141.1350   133.4080   118.9020 o          1 A0I      -0.945833
     27 P1         137.1420   133.7580   123.4520 p5         1 A0I       1.422700
     28 P2         140.0460   132.9700   122.8250 p5         1 A0I       1.498700
     29 P3         140.3740   134.0850   120.0260 p5         1 A0I       1.362900
     30 H1         134.3290   129.8630   123.5960 ha         1 A0I       0.227000
     31 H2         135.9340   130.9140   125.1510 h4         1 A0I       0.308000
     32 H5         136.8510   129.4540   128.2540 h2         1 A0I       0.051700
     33 H6         138.5750   128.4590   126.3400 h1         1 A0I       0.047700
     34 H7         138.3560   130.4360   125.0120 h1         1 A0I       0.081700
     35 H8         138.8840   132.0540   127.5400 h1         1 A0I       0.030700
     36 H10        138.9590   133.4500   125.6680 h1         1 A0I       0.040200
     37 H9         137.4380   133.7230   126.5030 h1         1 A0I       0.040200
     38 H3         133.2520   126.3800   124.0860 hn         1 A0I       0.478000
     39 H4         133.1030   127.7940   123.1090 hn         1 A0I       0.478000
     40 H11        138.3150   133.5330   121.4590 hn         1 A0I       0.547000
     41 H12        140.3260   131.1030   124.7680 ho         1 A0I       0.629000
     42 H13        139.1500   128.7030   128.5540 ho         1 A0I       0.456000
@<TRIPOS>BOND
     1     1     2 2   
     2     1     4 1   
     3     1    30 1   
     4     2    10 1   
     5     2    31 1   
     6     3    10 1   
     7     3    11 1   
     8     3    14 2   
     9     4    11 2   
    10     4    12 1   
    11     5     6 1   
    12     5    10 1   
    13     5    19 1   
    14     5    32 1   
    15     6     7 1   
    16     6    18 1   
    17     6    33 1   
    18     7     8 1   
    19     7    17 1   
    20     7    34 1   
    21     8     9 1   
    22     8    19 1   
    23     8    35 1   
    24     9    20 1   
    25     9    36 1   
    26     9    37 1   
    27    12    38 1   
    28    12    39 1   
    29    13    27 1   
    30    13    28 1   
    31    13    40 1   
    32    15    29 1   
    33    16    27 1   
    34    17    41 1   
    35    18    42 1   
    36    20    27 1   
    37    21    27 1   
    38    22    28 1   
    39    23    28 1   
    40    24    28 1   
    41    24    29 1   
    42    25    29 1   
    43    26    29 1   
@<TRIPOS>SUBSTRUCTURE
     1 A0I         1 TEMP              0 ****  ****    0 ROOT
