@<TRIPOS>MOLECULE
A0I
   42    43     1     0     0
SMALL
No Charge or Current Charge


@<TRIPOS>ATOM
      1 C1         134.6000   128.9800   124.4910 cc         1 A0I      -0.511600
      2 C2         135.5140   129.7100   125.2170 cd         1 A0I       0.080600
      3 C3         135.5780   127.8890   126.8320 c          1 A0I       0.708400
      4 C4         134.2180   127.7260   124.9820 cc         1 A0I       0.774500
      5 C5         136.9930   129.8810   127.2540 c5         1 A0I       0.293700
      6 C6         138.4450   129.3920   126.8670 c5         1 A0I       0.099300
      7 C7         138.8040   130.4750   125.7880 c5         1 A0I       0.207300
      8 C8         138.2380   131.7400   126.5080 c5         1 A0I       0.108300
      9 C9         138.0950   133.0110   125.6280 c3         1 A0I       0.236600
     10 N1         136.0270   129.1490   126.3900 n          1 A0I      -0.312000
     11 N2         134.6510   127.1890   126.0640 nd         1 A0I      -0.837100
     12 N3         133.3530   127.0080   124.3050 nv         1 A0I      -1.064200
     13 N4         138.5000   133.0930   122.2640 n7         1 A0I      -1.088600
     14 O1         135.9770   127.3680   127.8600 o          1 A0I      -0.636000
     15 O10        139.3210   135.2570   120.7460 o          1 A0I      -0.945833
     16 O11        136.1270   133.5010   122.3880 o          1 A0I      -0.886000
     17 O12        140.2060   130.5380   125.4520 oh         1 A0I      -0.813000
     18 O13        139.3310   129.3960   128.0140 oh         1 A0I      -0.688000
     19 O2         136.9430   131.3110   127.0090 os         1 A0I      -0.471000
     20 O3         137.4050   132.6670   124.4150 os         1 A0I      -0.628400
     21 O4         137.6430   135.0930   123.4900 o          1 A0I      -0.886000
     22 O5         140.3050   131.8300   123.3440 o          1 A0I      -0.904500
     23 O6         140.3900   134.2990   123.4470 o          1 A0I      -0.904500
     24 O7         140.5370   133.0960   121.1860 os         1 A0I      -0.739800
     25 O8         141.7750   135.2160   120.6420 o          1 A0I      -0.945833
     26 O9         140.4560   134.1250   118.9410 o          1 A0I      -0.945833
     27 P1         137.3770   133.6760   123.1700 p5         1 A0I       1.422700
     28 P2         140.0010   133.1140   122.6590 p5         1 A0I       1.498700
     29 P3         140.5220   134.4540   120.3900 p5         1 A0I       1.362900
     30 H1         134.1660   129.3540   123.5720 ha         1 A0I       0.227000
     31 H2         135.8740   130.7080   124.9580 h4         1 A0I       0.308000
     32 H5         136.7390   129.6590   128.2980 h2         1 A0I       0.051700
     33 H6         138.4250   128.3890   126.4170 h1         1 A0I       0.047700
     34 H7         138.2260   130.2770   124.8730 h1         1 A0I       0.081700
     35 H8         138.8610   131.9990   127.3750 h1         1 A0I       0.030700
     36 H10        139.0960   133.4060   125.4270 h1         1 A0I       0.040200
     37 H9         137.5390   133.7750   126.1880 h1         1 A0I       0.040200
     38 H3         133.3410   126.0390   124.5920 hn         1 A0I       0.478000
     39 H4         133.3280   127.1740   123.3080 hn         1 A0I       0.478000
     40 H11        138.7520   134.0650   122.0460 hn         1 A0I       0.547000
     41 H12        140.2510   131.0700   124.5650 ho         1 A0I       0.629000
     42 H13        139.1140   128.6010   128.5510 ho         1 A0I       0.456000
@<TRIPOS>BOND
     1     1     2 2   
     2     1     4 1   
     3     1    30 1   
     4     2    10 1   
     5     2    31 1   
     6     3    10 1   
     7     3    11 1   
     8     3    14 2   
     9     4    11 2   
    10     4    12 1   
    11     5     6 1   
    12     5    10 1   
    13     5    19 1   
    14     5    32 1   
    15     6     7 1   
    16     6    18 1   
    17     6    33 1   
    18     7     8 1   
    19     7    17 1   
    20     7    34 1   
    21     8     9 1   
    22     8    19 1   
    23     8    35 1   
    24     9    20 1   
    25     9    36 1   
    26     9    37 1   
    27    12    38 1   
    28    12    39 1   
    29    13    27 1   
    30    13    28 1   
    31    13    40 1   
    32    15    29 1   
    33    16    27 1   
    34    17    41 1   
    35    18    42 1   
    36    20    27 1   
    37    21    27 1   
    38    22    28 1   
    39    23    28 1   
    40    24    28 1   
    41    24    29 1   
    42    25    29 1   
    43    26    29 1   
@<TRIPOS>SUBSTRUCTURE
     1 A0I         1 TEMP              0 ****  ****    0 ROOT
