@<TRIPOS>MOLECULE
A0J
   43    46     1     0     0
SMALL
abcg2


@<TRIPOS>ATOM
      1 C1          -1.6070     0.2470     1.9800 c3         1 A0J      -0.070100
      2 C2          -1.3660    -0.3900     0.6150 c5         1 A0J      -0.073700
      3 C3           0.0740    -0.7640     0.3900 ca         1 A0J      -0.142300
      4 C4           1.2110     0.0110     0.3730 ca         1 A0J      -0.051000
      5 C5           2.4550    -0.5810     0.1070 ca         1 A0J      -0.013000
      6 C6           2.5020    -1.9540    -0.1430 ca         1 A0J      -0.077000
      7 C7           1.3590    -2.7450    -0.1400 ca         1 A0J      -0.143000
      8 C8           0.1520    -2.1300     0.1320 ca         1 A0J      -0.031000
      9 N9          -1.1190    -2.6820     0.2070 ns         1 A0J      -0.149000
     10 C10         -2.0600    -1.7560     0.5440 c          1 A0J       0.565000
     11 O11         -3.2310    -1.9860     0.7570 o          1 A0J      -0.515000
     12 C12          3.6720     0.2290     0.0950 cc         1 A0J      -0.154000
     13 C13          3.9000     1.4770     0.7100 cc         1 A0J       0.251900
     14 N14          5.1250     1.9140     0.4870 nd         1 A0J      -0.523800
     15 N15          5.7000     0.9820    -0.2640 na         1 A0J       0.134800
     16 C16          4.8770    -0.0460    -0.5240 cd         1 A0J      -0.160000
     17 C17          7.0720     1.1350    -0.6850 c3         1 A0J       0.072900
     18 C18         -1.8330     0.5170    -0.5550 c3         1 A0J      -0.008100
     19 C19         -3.2830     0.9130    -0.5580 ca         1 A0J      -0.080300
     20 C20         -3.7170     2.0360     0.1440 ca         1 A0J      -0.094500
     21 C21         -5.0530     2.4150     0.1300 ca         1 A0J      -0.110000
     22 C22         -5.9780     1.6770    -0.5970 ca         1 A0J      -0.107000
     23 C23         -5.5550     0.5630    -1.3120 ca         1 A0J      -0.110000
     24 C24         -4.2200     0.1860    -1.2900 ca         1 A0J      -0.094500
     25 H11C        -1.0940     1.2060     2.0500 hc         1 A0J       0.047700
     26 H12C        -2.6690     0.4160     2.1530 hc         1 A0J       0.047700
     27 H13C        -1.2300    -0.3910     2.7800 hc         1 A0J       0.047700
     28 H181        -1.2140     1.4170    -0.5150 hc         1 A0J       0.053200
     29 H182        -1.5850     0.0210    -1.4970 hc         1 A0J       0.053200
     30 H4           1.1430     1.0780     0.5530 ha         1 A0J       0.119000
     31 H6           3.4560    -2.4290    -0.3350 ha         1 A0J       0.111000
     32 H7           1.4240    -3.8080    -0.3330 ha         1 A0J       0.121000
     33 H9          -1.3210    -3.6660     0.1100 hn         1 A0J       0.171000
     34 H13          3.2200     2.0590     1.3140 h4         1 A0J       0.038100
     35 H16          5.1910    -0.8800    -1.1310 h4         1 A0J       0.153000
     36 H171         7.7430     1.0940     0.1710 h1         1 A0J       0.056700
     37 H172         7.3230     0.3280    -1.3680 h1         1 A0J       0.056700
     38 H173         7.2020     2.0850    -1.1980 h1         1 A0J       0.056700
     39 H20         -3.0010     2.6260     0.7030 ha         1 A0J       0.108500
     40 H24         -3.9000    -0.6810    -1.8550 ha         1 A0J       0.108500
     41 H21         -5.3690     3.2920     0.6800 ha         1 A0J       0.111000
     42 H22         -7.0190     1.9730    -0.6150 ha         1 A0J       0.110000
     43 H23         -6.2660    -0.0120    -1.8910 ha         1 A0J       0.111000
@<TRIPOS>BOND
     1     1     2 1   
     2     1    25 1   
     3     1    26 1   
     4     1    27 1   
     5     2     3 1   
     6     2    10 1   
     7     2    18 1   
     8     3     4 ar  
     9     3     8 ar  
    10     4     5 ar  
    11     4    30 1   
    12     5     6 ar  
    13     5    12 1   
    14     6     7 ar  
    15     6    31 1   
    16     7     8 ar  
    17     7    32 1   
    18     8     9 1   
    19     9    10 1   
    20     9    33 1   
    21    10    11 2   
    22    12    13 1   
    23    12    16 2   
    24    13    14 2   
    25    13    34 1   
    26    14    15 1   
    27    15    16 1   
    28    15    17 1   
    29    16    35 1   
    30    17    36 1   
    31    17    37 1   
    32    17    38 1   
    33    18    19 1   
    34    18    28 1   
    35    18    29 1   
    36    19    20 ar  
    37    19    24 ar  
    38    20    21 ar  
    39    20    39 1   
    40    21    22 ar  
    41    21    41 1   
    42    22    23 ar  
    43    22    42 1   
    44    23    24 ar  
    45    23    43 1   
    46    24    40 1   
@<TRIPOS>SUBSTRUCTURE
     1 A0J         1 TEMP              0 ****  ****    0 ROOT
