@<TRIPOS>MOLECULE
A0J
   43    46     1     0     0
SMALL
No Charge or Current Charge


@<TRIPOS>ATOM
      1 C1          -1.5970     0.1410     1.8850 c3         1 A0J      -0.070100
      2 C2          -1.3880    -0.4720     0.4750 c5         1 A0J      -0.073700
      3 C3           0.0840    -0.8280     0.2420 ca         1 A0J      -0.142300
      4 C4           1.2120     0.0080     0.2330 ca         1 A0J      -0.051000
      5 C5           2.4900    -0.5530    -0.0140 ca         1 A0J      -0.013000
      6 C6           2.5980    -1.9530    -0.2470 ca         1 A0J      -0.077000
      7 C7           1.4550    -2.7800    -0.2340 ca         1 A0J      -0.143000
      8 C8           0.2210    -2.1770     0.0130 ca         1 A0J      -0.031000
      9 N9          -1.0410    -2.7430     0.0920 ns         1 A0J      -0.149000
     10 C10         -2.0850    -1.8890     0.3760 c          1 A0J       0.565000
     11 O11         -3.2530    -2.2190     0.5490 o          1 A0J      -0.515000
     12 C12          3.6700     0.3220    -0.0230 cc         1 A0J      -0.154000
     13 C13          3.7730     1.7090     0.1820 cc         1 A0J       0.251900
     14 N14          5.0050     2.1690     0.1010 nd         1 A0J      -0.523800
     15 N15          5.7360     1.0200    -0.1720 na         1 A0J       0.134800
     16 C16          4.9390    -0.1280    -0.2530 cd         1 A0J      -0.160000
     17 C17          7.1940     1.0800    -0.3450 c3         1 A0J       0.072900
     18 C18         -1.8980     0.4900    -0.6430 c3         1 A0J      -0.008100
     19 C19         -3.3530     0.9420    -0.5260 ca         1 A0J      -0.080300
     20 C20         -3.6810     2.1080     0.1950 ca         1 A0J      -0.094500
     21 C21         -5.0180     2.5320     0.2920 ca         1 A0J      -0.110000
     22 C22         -6.0360     1.7970    -0.3380 ca         1 A0J      -0.107000
     23 C23         -5.7150     0.6400    -1.0680 ca         1 A0J      -0.110000
     24 C24         -4.3790     0.2170    -1.1650 ca         1 A0J      -0.094500
     25 H11C        -1.1130     1.1220     1.9700 hc         1 A0J       0.047700
     26 H12C        -2.6610     0.2680     2.1190 hc         1 A0J       0.047700
     27 H13C        -1.1690    -0.5070     2.6600 hc         1 A0J       0.047700
     28 H181        -1.2570     1.3800    -0.6650 hc         1 A0J       0.053200
     29 H182        -1.7460     0.0130    -1.6190 hc         1 A0J       0.053200
     30 H4           1.0930     1.0730     0.4160 ha         1 A0J       0.119000
     31 H6           3.5630    -2.4110    -0.4390 ha         1 A0J       0.111000
     32 H7           1.5350    -3.8500    -0.4090 ha         1 A0J       0.121000
     33 H9          -1.1820    -3.7400    -0.0070 hn         1 A0J       0.171000
     34 H13          2.9740     2.4060     0.3920 h4         1 A0J       0.038100
     35 H16          5.3420    -1.1120    -0.4580 h4         1 A0J       0.153000
     36 H171         7.6560     1.4640     0.5730 h1         1 A0J       0.056700
     37 H172         7.5850     0.0770    -0.5540 h1         1 A0J       0.056700
     38 H173         7.4370     1.7460    -1.1810 h1         1 A0J       0.056700
     39 H20         -2.9000     2.6870     0.6830 ha         1 A0J       0.108500
     40 H24         -4.1410    -0.6780    -1.7350 ha         1 A0J       0.108500
     41 H21         -5.2640     3.4300     0.8530 ha         1 A0J       0.111000
     42 H22         -7.0710     2.1250    -0.2640 ha         1 A0J       0.110000
     43 H23         -6.5020     0.0720    -1.5600 ha         1 A0J       0.111000
@<TRIPOS>BOND
     1     1     2 1   
     2     1    25 1   
     3     1    26 1   
     4     1    27 1   
     5     2     3 1   
     6     2    10 1   
     7     2    18 1   
     8     3     4 ar  
     9     3     8 ar  
    10     4     5 ar  
    11     4    30 1   
    12     5     6 ar  
    13     5    12 1   
    14     6     7 ar  
    15     6    31 1   
    16     7     8 ar  
    17     7    32 1   
    18     8     9 1   
    19     9    10 1   
    20     9    33 1   
    21    10    11 2   
    22    12    13 1   
    23    12    16 2   
    24    13    14 2   
    25    13    34 1   
    26    14    15 1   
    27    15    16 1   
    28    15    17 1   
    29    16    35 1   
    30    17    36 1   
    31    17    37 1   
    32    17    38 1   
    33    18    19 1   
    34    18    28 1   
    35    18    29 1   
    36    19    20 ar  
    37    19    24 ar  
    38    20    21 ar  
    39    20    39 1   
    40    21    22 ar  
    41    21    41 1   
    42    22    23 ar  
    43    22    42 1   
    44    23    24 ar  
    45    23    43 1   
    46    24    40 1   
@<TRIPOS>SUBSTRUCTURE
     1 A0J         1 TEMP              0 ****  ****    0 ROOT
