@<TRIPOS>MOLECULE
A0K
   35    35     1     0     0
SMALL
No Charge or Current Charge


@<TRIPOS>ATOM
      1 C10         -3.3530    -1.2930     0.2570 c3         1 A0K       0.166100
      2 C01          1.0550     2.7780     0.1610 c3         1 A0K       0.172600
      3 C02          0.9320     1.2250     0.1810 c6         1 A0K       0.155300
      4 C03          2.2750     0.4930     0.4660 c6         1 A0K       0.154300
      5 C04          2.0070    -1.0400     0.4470 c6         1 A0K       0.137300
      6 C05          1.3630    -1.4670    -0.9060 c6         1 A0K       0.118300
      7 C06          0.0920    -0.5970    -1.2090 c6         1 A0K       0.354300
      8 C09         -2.3500    -0.6070    -0.7260 c3         1 A0K       0.152300
      9 C12         -2.5940     0.9330    -0.9250 c3         1 A0K       0.166100
     10 O07          0.4080     0.8070    -1.1090 os         1 A0K      -0.468000
     11 O08         -0.9900    -0.9230    -0.3100 os         1 A0K      -0.450000
     12 O11         -3.0790    -1.0230     1.6480 oh         1 A0K      -0.698500
     13 O13         -2.3030     1.7350     0.2340 oh         1 A0K      -0.698500
     14 O15          1.0550    -2.8820    -0.8800 oh         1 A0K      -0.707000
     15 O16          3.2260    -1.7730     0.6770 oh         1 A0K      -0.673000
     16 O17          2.8450     0.8670     1.7340 oh         1 A0K      -0.717000
     17 O18         -0.2000     3.4200    -0.1540 oh         1 A0K      -0.732000
     18 H1          -4.3710    -0.9680     0.0010 h1         1 A0K       0.026450
     19 H2          -3.3120    -2.3760     0.0790 h1         1 A0K       0.026450
     20 H3           1.4120     3.1120     1.1450 h1         1 A0K       0.041700
     21 H4           1.8200     3.0530    -0.5780 h1         1 A0K       0.041700
     22 H6           2.9800     0.7350    -0.3440 h1         1 A0K       0.046700
     23 H7           1.2830    -1.2640     1.2470 h1         1 A0K       0.077700
     24 H8           2.0920    -1.2670    -1.7060 h1         1 A0K       0.052700
     25 H9          -0.2270    -0.8170    -2.2390 h2         1 A0K       0.059700
     26 H10         -2.5300    -1.0690    -1.7060 h1         1 A0K       0.021700
     27 H11         -2.0020     1.2830    -1.7810 h1         1 A0K       0.026450
     28 H12         -3.6460     1.0710    -1.2080 h1         1 A0K       0.026450
     29 H13         -3.7610    -1.5000     2.1730 ho         1 A0K       0.512000
     30 H14         -1.4780     2.2580     0.0180 ho         1 A0K       0.512000
     31 H15          0.1630    -2.9600    -0.4630 ho         1 A0K       0.507000
     32 H16          3.0540    -2.6750     0.3200 ho         1 A0K       0.465000
     33 H17          3.4770     0.1380     1.9480 ho         1 A0K       0.524000
     34 H18         -0.0050     4.3820    -0.2690 ho         1 A0K       0.511000
     35 H5           0.2120     0.9600     0.9680 h1         1 A0K       0.088700
@<TRIPOS>BOND
     1     1     8 1   
     2     1    12 1   
     3     1    18 1   
     4     1    19 1   
     5     2     3 1   
     6     2    17 1   
     7     2    20 1   
     8     2    21 1   
     9     3     4 1   
    10     3    10 1   
    11     3    35 1   
    12     4     5 1   
    13     4    16 1   
    14     4    22 1   
    15     5     6 1   
    16     5    15 1   
    17     5    23 1   
    18     6     7 1   
    19     6    14 1   
    20     6    24 1   
    21     7    10 1   
    22     7    11 1   
    23     7    25 1   
    24     8     9 1   
    25     8    11 1   
    26     8    26 1   
    27     9    13 1   
    28     9    27 1   
    29     9    28 1   
    30    12    29 1   
    31    13    30 1   
    32    14    31 1   
    33    15    32 1   
    34    16    33 1   
    35    17    34 1   
@<TRIPOS>SUBSTRUCTURE
     1 A0K         1 TEMP              0 ****  ****    0 ROOT
