@<TRIPOS>MOLECULE
A0K
   35    35     1     0     0
SMALL
bcc


@<TRIPOS>ATOM
      1 C10         -3.2250    -1.3050     0.3440 c3         1 A0K       0.142900
      2 C01          1.1980     2.7130     0.0200 c3         1 A0K       0.149400
      3 C02          0.9620     1.2220     0.1260 c6         1 A0K       0.132100
      4 C03          2.2290     0.4310     0.4330 c6         1 A0K       0.131100
      5 C04          1.8920    -1.0570     0.4390 c6         1 A0K       0.114100
      6 C05          1.2150    -1.4440    -0.8710 c6         1 A0K       0.095100
      7 C06          0.0080    -0.5390    -1.1410 c6         1 A0K       0.307900
      8 C09         -2.3170    -0.5610    -0.6130 c3         1 A0K       0.129100
      9 C12         -2.6620     0.9190    -0.8060 c3         1 A0K       0.142900
     10 O07          0.4280     0.8000    -1.1180 os         1 A0K      -0.421600
     11 O08         -0.9810    -0.8040    -0.2110 os         1 A0K      -0.403600
     12 O11         -3.1490    -0.7730     1.6430 oh         1 A0K      -0.576300
     13 O13         -2.3970     1.7450     0.2960 oh         1 A0K      -0.576300
     14 O15          0.8640    -2.8020    -0.7960 oh         1 A0K      -0.584800
     15 O16          3.0950    -1.7620     0.6330 oh         1 A0K      -0.610800
     16 O17          2.7170     0.8590     1.6800 oh         1 A0K      -0.594800
     17 O18         -0.0460     3.3350    -0.2440 oh         1 A0K      -0.609800
     18 H1          -4.2440    -1.2460    -0.0630 h1         1 A0K       0.026450
     19 H2          -2.9430    -2.3670     0.3250 h1         1 A0K       0.026450
     20 H3           1.6310     3.0690     0.9570 h1         1 A0K       0.041700
     21 H4           1.9200     2.9210    -0.7800 h1         1 A0K       0.041700
     22 H6           2.9640     0.6200    -0.3660 h1         1 A0K       0.046700
     23 H7           1.1930    -1.2430     1.2690 h1         1 A0K       0.077700
     24 H8           1.9300    -1.2660    -1.6870 h1         1 A0K       0.052700
     25 H9          -0.3620    -0.7080    -2.1620 h2         1 A0K       0.059700
     26 H10         -2.4950    -1.0280    -1.5960 h1         1 A0K       0.021700
     27 H11         -2.1550     1.2810    -1.7060 h1         1 A0K       0.026450
     28 H12         -3.7350     0.9580    -1.0340 h1         1 A0K       0.026450
     29 H13         -3.7380    -1.2880     2.2020 ho         1 A0K       0.413000
     30 H14         -1.5870     2.2450     0.1230 ho         1 A0K       0.413000
     31 H15          0.7070    -3.1320    -1.6850 ho         1 A0K       0.408000
     32 H16          2.8870    -2.6960     0.7390 ho         1 A0K       0.426000
     33 H17          3.5070     0.3500     1.8870 ho         1 A0K       0.425000
     34 H18          0.0010     4.2570     0.0220 ho         1 A0K       0.412000
     35 H5           0.2370     1.0460     0.9330 h1         1 A0K       0.088700
@<TRIPOS>BOND
     1     1     8 1   
     2     1    12 1   
     3     1    18 1   
     4     1    19 1   
     5     2     3 1   
     6     2    17 1   
     7     2    20 1   
     8     2    21 1   
     9     3     4 1   
    10     3    10 1   
    11     3    35 1   
    12     4     5 1   
    13     4    16 1   
    14     4    22 1   
    15     5     6 1   
    16     5    15 1   
    17     5    23 1   
    18     6     7 1   
    19     6    14 1   
    20     6    24 1   
    21     7    10 1   
    22     7    11 1   
    23     7    25 1   
    24     8     9 1   
    25     8    11 1   
    26     8    26 1   
    27     9    13 1   
    28     9    27 1   
    29     9    28 1   
    30    12    29 1   
    31    13    30 1   
    32    14    31 1   
    33    15    32 1   
    34    16    33 1   
    35    17    34 1   
@<TRIPOS>SUBSTRUCTURE
     1 A0K         1 TEMP              0 ****  ****    0 ROOT
