@<TRIPOS>MOLECULE
A0L
   75    79     1     0     0
SMALL
No Charge or Current Charge


@<TRIPOS>ATOM
      1 C10         -3.9360     2.4720    -0.1750 cc         1 A0L       0.502300
      2 C15         -3.3640     6.0080    -0.2060 c3         1 A0L      -0.071300
      3 C17         -3.1770     6.3260    -1.7160 c3         1 A0L      -0.083100
      4 C24          0.8870     0.2130    -1.2620 ca         1 A0L      -0.093500
      5 C26          3.2310    -0.4210    -0.9180 cp         1 A0L      -0.046000
      6 C28          1.7120    -1.8860    -2.1690 ca         1 A0L      -0.093500
      7 C01         -0.3610    -6.5600     1.8450 c3         1 A0L      -0.086100
      8 C02         -0.1510    -5.5170     0.7310 c3         1 A0L      -0.080400
      9 C03         -1.1960    -4.3790     0.7600 c3         1 A0L      -0.062400
     10 C05         -1.9390    -2.1480    -0.4120 cc         1 A0L       0.533900
     11 C07         -3.7590    -1.0360     0.5550 cd         1 A0L       0.232400
     12 C08         -3.6780    -0.0660    -0.4240 cc         1 A0L      -0.292400
     13 C09         -4.5990     1.1550    -0.4960 c3         1 A0L      -0.036500
     14 C12         -3.3710     4.4880    -0.0010 cd         1 A0L       0.567300
     15 C16         -2.2120     6.6970     0.5850 c3         1 A0L      -0.083100
     16 C18         -4.7140     6.6030     0.2780 c3         1 A0L      -0.083100
     17 C19         -2.6680    -0.1160    -1.4880 c          1 A0L       0.560200
     18 C23          0.6490    -0.9850    -1.9640 ca         1 A0L      -0.102300
     19 C25          2.1650     0.4920    -0.7490 ca         1 A0L      -0.088500
     20 C27          2.9870    -1.6060    -1.6520 ca         1 A0L      -0.088500
     21 C29          4.5810    -0.1360    -0.3490 cp         1 A0L       0.016000
     22 C30          5.2470    -1.0510     0.5220 ca         1 A0L      -0.134900
     23 C31          6.5400    -0.7230     0.9970 ca         1 A0L      -0.085000
     24 C32          7.1730     0.4700     0.6120 ca         1 A0L      -0.110000
     25 C33          6.5200     1.3670    -0.2430 ca         1 A0L      -0.084000
     26 C34          5.2350     1.0650    -0.7140 ca         1 A0L      -0.102000
     27 C35          4.6170    -2.2710     1.0400 cc         1 A0L       0.434500
     28 C38          4.5460    -4.3990     1.6730 c          1 A0L       0.652100
     29 N06         -2.8630    -2.0950     0.5470 nd         1 A0L      -0.657300
     30 N11         -4.2970     3.6620    -0.6030 nd         1 A0L      -0.721000
     31 N13         -2.4940     3.8540     0.7680 nc         1 A0L      -0.388300
     32 N21         -1.8120    -1.2090    -1.4330 n          1 A0L      -0.309300
     33 N36          3.3540    -2.4400     1.3960 nd         1 A0L      -0.293700
     34 N40          5.3080    -3.4100     1.2060 ns         1 A0L      -0.562900
     35 O14         -2.8660     2.4970     0.6660 os         1 A0L      -0.096700
     36 O20         -2.5810     0.7450    -2.3550 o          1 A0L      -0.551000
     37 O37          3.3000    -3.8330     1.8160 os         1 A0L      -0.230100
     38 O39          4.8850    -5.5450     1.9140 o          1 A0L      -0.502000
     39 H1          -2.2360     5.9040    -2.0890 hc         1 A0L       0.042367
     40 H2          -3.9960     5.9070    -2.3130 hc         1 A0L       0.042367
     41 H3          -3.1560     7.4090    -1.8910 hc         1 A0L       0.042367
     42 H4          -0.9640    -0.6620    -3.3280 h1         1 A0L       0.080200
     43 H5          -0.7590    -2.3330    -2.8920 h1         1 A0L       0.080200
     44 H6           0.0810     0.9260    -1.1020 ha         1 A0L       0.124000
     45 H7           1.5490    -2.8120    -2.7160 ha         1 A0L       0.124000
     46 H8          -1.3470    -7.0320     1.7540 hc         1 A0L       0.033700
     47 H9           0.4020    -7.3450     1.7820 hc         1 A0L       0.033700
     48 H10         -0.2910    -6.0910     2.8340 hc         1 A0L       0.033700
     49 H11          0.8540    -5.0900     0.8290 hc         1 A0L       0.039200
     50 H12         -0.1900    -6.0220    -0.2430 hc         1 A0L       0.039200
     51 H13         -2.2000    -4.8110     0.6510 hc         1 A0L       0.056700
     52 H14         -1.1600    -3.8900     1.7420 hc         1 A0L       0.056700
     53 H15          0.0480    -2.9270    -0.2140 hc         1 A0L       0.067200
     54 H16         -0.9760    -3.8480    -1.3130 hc         1 A0L       0.067200
     55 H19         -5.4610     1.0440     0.1690 hc         1 A0L       0.083700
     56 H20         -5.0350     1.2230    -1.4990 hc         1 A0L       0.083700
     57 H21         -1.2330     6.3220     0.2640 hc         1 A0L       0.042367
     58 H22         -2.2220     7.7830     0.4270 hc         1 A0L       0.042367
     59 H23         -2.3110     6.5170     1.6630 hc         1 A0L       0.042367
     60 H24         -4.7330     7.6930     0.1540 hc         1 A0L       0.042367
     61 H25         -5.5570     6.1880    -0.2890 hc         1 A0L       0.042367
     62 H26         -4.8790     6.3800     1.3400 hc         1 A0L       0.042367
     63 H27          2.3280     1.4140    -0.1960 ha         1 A0L       0.118500
     64 H28          3.7940    -2.3160    -1.8130 ha         1 A0L       0.118500
     65 H29          7.0560    -1.3850     1.6890 ha         1 A0L       0.121000
     66 H30          8.1670     0.7040     0.9890 ha         1 A0L       0.123000
     67 H31          7.0080     2.2940    -0.5390 ha         1 A0L       0.122000
     68 H32          4.7380     1.7620    -1.3850 ha         1 A0L       0.128000
     69 H33         -4.5990    -1.8580     2.3790 hc         1 A0L       0.059367
     70 H34         -4.7040    -0.0990     2.2550 hc         1 A0L       0.059367
     71 H35         -5.7850    -1.1270     1.2920 hc         1 A0L       0.059367
     72 H17          6.2800    -3.5490     0.9760 hn         1 A0L       0.481000
     73 C41         -4.7640    -1.0300     1.6790 c3         1 A0L      -0.057900
     74 C22         -0.7480    -1.3180    -2.4760 c3         1 A0L       0.125300
     75 C04         -0.9640    -3.3210    -0.3530 c3         1 A0L      -0.123700
@<TRIPOS>BOND
     1     1    13 1   
     2     1    30 2   
     3     1    35 1   
     4     2     3 1   
     5     2    14 1   
     6     2    15 1   
     7     2    16 1   
     8     3    39 1   
     9     3    40 1   
    10     3    41 1   
    11     4    18 ar  
    12     4    19 ar  
    13     4    44 1   
    14     5    19 ar  
    15     5    20 ar  
    16     5    21 1   
    17     6    18 ar  
    18     6    20 ar  
    19     6    45 1   
    20     7     8 1   
    21     7    46 1   
    22     7    47 1   
    23     7    48 1   
    24     8     9 1   
    25     8    49 1   
    26     8    50 1   
    27     9    51 1   
    28     9    52 1   
    29     9    75 1   
    30    10    29 2   
    31    10    32 1   
    32    10    75 1   
    33    11    12 2   
    34    11    29 1   
    35    11    73 1   
    36    12    13 1   
    37    12    17 1   
    38    13    55 1   
    39    13    56 1   
    40    14    30 1   
    41    14    31 2   
    42    15    57 1   
    43    15    58 1   
    44    15    59 1   
    45    16    60 1   
    46    16    61 1   
    47    16    62 1   
    48    17    32 1   
    49    17    36 2   
    50    18    74 1   
    51    19    63 1   
    52    20    64 1   
    53    21    22 ar  
    54    21    26 ar  
    55    22    23 ar  
    56    22    27 1   
    57    23    24 ar  
    58    23    65 1   
    59    24    25 ar  
    60    24    66 1   
    61    25    26 ar  
    62    25    67 1   
    63    26    68 1   
    64    27    33 2   
    65    27    34 1   
    66    28    34 1   
    67    28    37 1   
    68    28    38 2   
    69    31    35 1   
    70    32    74 1   
    71    33    37 1   
    72    34    72 1   
    73    42    74 1   
    74    43    74 1   
    75    53    75 1   
    76    54    75 1   
    77    69    73 1   
    78    70    73 1   
    79    71    73 1   
@<TRIPOS>SUBSTRUCTURE
     1 A0L         1 TEMP              0 ****  ****    0 ROOT
