@<TRIPOS>MOLECULE
A0L
   75    79     1     0     0
SMALL
bcc


@<TRIPOS>ATOM
      1 C10         -3.8860     2.3830    -0.0800 cc         1 A0L       0.546700
      2 C15         -3.0130     5.7740    -0.4840 c3         1 A0L      -0.071300
      3 C17         -2.8540     5.8790    -2.0060 c3         1 A0L      -0.083100
      4 C24          0.6650     0.1970    -0.7930 ca         1 A0L      -0.111500
      5 C26          3.0400    -0.2150    -0.6480 cp         1 A0L      -0.046000
      6 C28          1.6500    -1.5550    -2.0920 ca         1 A0L      -0.111500
      7 C01         -0.3020    -6.4880     1.7560 c3         1 A0L      -0.086100
      8 C02         -0.1640    -5.4460     0.6570 c3         1 A0L      -0.080400
      9 C03         -1.2410    -4.3700     0.7280 c3         1 A0L      -0.062400
     10 C05         -2.0200    -2.1890    -0.3270 cc         1 A0L       0.533900
     11 C07         -3.7940    -1.1220     0.6630 cd         1 A0L       0.232400
     12 C08         -3.7370    -0.0870    -0.2200 cc         1 A0L      -0.292400
     13 C09         -4.6420     1.1070    -0.1970 c3         1 A0L      -0.036500
     14 C12         -3.1420     4.3230    -0.1280 cd         1 A0L       0.567300
     15 C16         -1.8010     6.3960     0.2060 c3         1 A0L      -0.083100
     16 C18         -4.2910     6.4980    -0.0470 c3         1 A0L      -0.083100
     17 C19         -2.7480    -0.0960    -1.2570 c          1 A0L       0.702700
     18 C23          0.5180    -0.8510    -1.6960 ca         1 A0L      -0.102300
     19 C25          1.9130     0.5100    -0.2750 ca         1 A0L      -0.106500
     20 C27          2.8960    -1.2420    -1.5770 ca         1 A0L      -0.106500
     21 C29          4.3670     0.0990    -0.0770 cp         1 A0L       0.016000
     22 C30          5.1340    -0.8700     0.5820 ca         1 A0L      -0.134900
     23 C31          6.4150    -0.5700     1.0400 ca         1 A0L      -0.103000
     24 C32          6.9360     0.7020     0.8730 ca         1 A0L      -0.128000
     25 C33          6.1720     1.6790     0.2480 ca         1 A0L      -0.102000
     26 C34          4.9040     1.3760    -0.2230 ca         1 A0L      -0.120000
     27 C35          4.5930    -2.2040     0.8610 cc         1 A0L       0.434500
     28 C38          4.4430    -4.4000     0.9660 c          1 A0L       0.794600
     29 N06         -2.9330    -2.1710     0.5900 nd         1 A0L      -0.657300
     30 N11         -4.1550     3.5320    -0.5980 nd         1 A0L      -0.721000
     31 N13         -2.3080     3.6910     0.6360 nc         1 A0L      -0.388300
     32 N21         -1.8920    -1.1990    -1.2550 n          1 A0L      -0.376300
     33 N36          3.4850    -2.4270     1.4700 nd         1 A0L      -0.392200
     34 N40          5.2230    -3.3670     0.5410 ns         1 A0L      -0.516400
     35 O14         -2.7990     2.4080     0.6750 os         1 A0L      -0.141100
     36 O20         -2.6260     0.7990    -2.0840 o          1 A0L      -0.626500
     37 O37          3.3730    -3.8080     1.5370 os         1 A0L      -0.131600
     38 O39          4.6010    -5.5880     0.8880 o          1 A0L      -0.577500
     39 H1          -1.9550     5.3640    -2.3460 hc         1 A0L       0.042367
     40 H2          -3.7100     5.4510    -2.5280 hc         1 A0L       0.042367
     41 H3          -2.7720     6.9270    -2.2990 hc         1 A0L       0.042367
     42 H4          -1.1150    -0.5450    -3.0510 h1         1 A0L       0.080200
     43 H5          -0.7880    -2.2240    -2.7040 h1         1 A0L       0.080200
     44 H6          -0.1920     0.7720    -0.4650 ha         1 A0L       0.142000
     45 H7           1.5590    -2.3680    -2.8030 ha         1 A0L       0.142000
     46 H8          -1.2560    -7.0150     1.6880 hc         1 A0L       0.033700
     47 H9           0.4920    -7.2330     1.6980 hc         1 A0L       0.033700
     48 H10         -0.2520    -6.0270     2.7440 hc         1 A0L       0.033700
     49 H11          0.8220    -4.9750     0.7240 hc         1 A0L       0.039200
     50 H12         -0.1980    -5.9370    -0.3210 hc         1 A0L       0.039200
     51 H13         -2.2290    -4.8280     0.6500 hc         1 A0L       0.056700
     52 H14         -1.2050    -3.8810     1.7040 hc         1 A0L       0.056700
     53 H15         -0.0370    -2.9370    -0.3190 hc         1 A0L       0.067200
     54 H16         -1.1240    -3.8240    -1.3500 hc         1 A0L       0.067200
     55 H19         -5.3430     1.0480     0.6370 hc         1 A0L       0.083700
     56 H20         -5.2460     1.1660    -1.1050 hc         1 A0L       0.083700
     57 H21         -0.8700     5.9210    -0.1080 hc         1 A0L       0.042367
     58 H22         -1.7380     7.4540    -0.0510 hc         1 A0L       0.042367
     59 H23         -1.8690     6.3210     1.2920 hc         1 A0L       0.042367
     60 H24         -4.2240     7.5540    -0.3120 hc         1 A0L       0.042367
     61 H25         -5.1740     6.0840    -0.5330 hc         1 A0L       0.042367
     62 H26         -4.4340     6.4330     1.0330 hc         1 A0L       0.042367
     63 H27          2.0020     1.3120     0.4470 ha         1 A0L       0.136500
     64 H28          3.7610    -1.8080    -1.9010 ha         1 A0L       0.136500
     65 H29          6.9960    -1.3260     1.5520 ha         1 A0L       0.139000
     66 H30          7.9280     0.9310     1.2370 ha         1 A0L       0.141000
     67 H31          6.5670     2.6770     0.1170 ha         1 A0L       0.140000
     68 H32          4.3280     2.1350    -0.7380 ha         1 A0L       0.146000
     69 H33         -4.6090    -2.0510     2.4030 hc         1 A0L       0.059367
     70 H34         -4.7580    -0.2910     2.3980 hc         1 A0L       0.059367
     71 H35         -5.8120    -1.2630     1.3830 hc         1 A0L       0.059367
     72 H17          6.0870    -3.4670     0.0280 hn         1 A0L       0.367500
     73 C41         -4.7960    -1.1850     1.7740 c3         1 A0L      -0.057900
     74 C22         -0.8280    -1.2320    -2.2580 c3         1 A0L       0.125300
     75 C04         -1.0550    -3.3360    -0.3720 c3         1 A0L      -0.123700
@<TRIPOS>BOND
     1     1    13 1   
     2     1    30 2   
     3     1    35 1   
     4     2     3 1   
     5     2    14 1   
     6     2    15 1   
     7     2    16 1   
     8     3    39 1   
     9     3    40 1   
    10     3    41 1   
    11     4    18 ar  
    12     4    19 ar  
    13     4    44 1   
    14     5    19 ar  
    15     5    20 ar  
    16     5    21 1   
    17     6    18 ar  
    18     6    20 ar  
    19     6    45 1   
    20     7     8 1   
    21     7    46 1   
    22     7    47 1   
    23     7    48 1   
    24     8     9 1   
    25     8    49 1   
    26     8    50 1   
    27     9    51 1   
    28     9    52 1   
    29     9    75 1   
    30    10    29 2   
    31    10    32 1   
    32    10    75 1   
    33    11    12 2   
    34    11    29 1   
    35    11    73 1   
    36    12    13 1   
    37    12    17 1   
    38    13    55 1   
    39    13    56 1   
    40    14    30 1   
    41    14    31 2   
    42    15    57 1   
    43    15    58 1   
    44    15    59 1   
    45    16    60 1   
    46    16    61 1   
    47    16    62 1   
    48    17    32 1   
    49    17    36 2   
    50    18    74 1   
    51    19    63 1   
    52    20    64 1   
    53    21    22 ar  
    54    21    26 ar  
    55    22    23 ar  
    56    22    27 1   
    57    23    24 ar  
    58    23    65 1   
    59    24    25 ar  
    60    24    66 1   
    61    25    26 ar  
    62    25    67 1   
    63    26    68 1   
    64    27    33 2   
    65    27    34 1   
    66    28    34 1   
    67    28    37 1   
    68    28    38 2   
    69    31    35 1   
    70    32    74 1   
    71    33    37 1   
    72    34    72 1   
    73    42    74 1   
    74    43    74 1   
    75    53    75 1   
    76    54    75 1   
    77    69    73 1   
    78    70    73 1   
    79    71    73 1   
@<TRIPOS>SUBSTRUCTURE
     1 A0L         1 TEMP              0 ****  ****    0 ROOT
