@<TRIPOS>MOLECULE
A0M
   55    58     1     0     0
SMALL
bcc


@<TRIPOS>ATOM
      1 C10          1.5410    -2.8450    84.8390 ca         1 A0M      -0.142600
      2 C13          0.6380    -1.7750    86.7970 ca         1 A0M      -0.121000
      3 C15         -0.8130    -2.9910    85.2750 ca         1 A0M      -0.190600
      4 C21         -2.1640    -3.4730    84.9800 c          1 A0M       0.727100
      5 C22         -4.5000    -3.4400    85.6400 ca         1 A0M       0.023600
      6 C26         -6.5670    -3.3620    84.4410 ca         1 A0M      -0.125000
      7 C28         -6.3350    -4.8010    86.3560 ca         1 A0M      -0.125000
      8 C1           5.3080    -5.5430    82.6720 c6         1 A0M      -0.075200
      9 C2           4.4890    -6.7870    82.9660 c6         1 A0M      -0.064400
     10 C3           3.9200    -6.7070    84.3700 c6         1 A0M      -0.183400
     11 C4           3.1080    -5.4560    84.6140 c          1 A0M       0.609300
     12 C5           3.4580    -4.2640    83.8330 ce         1 A0M      -0.493400
     13 C6           4.5350    -4.3010    82.9490 c2         1 A0M       0.286900
     14 C9           2.7560    -3.0080    83.9830 c          1 A0M       0.635900
     15 C12          1.7100    -2.0820    85.9970 ca         1 A0M      -0.055000
     16 C14         -0.6350    -2.2140    86.4370 ca         1 A0M       0.194400
     17 C16          0.2900    -3.3080    84.4500 ca         1 A0M       0.050700
     18 C19         -2.8590    -2.1920    86.9070 cc         1 A0M       0.484900
     19 C25         -5.2620    -2.9280    84.5990 ca         1 A0M      -0.106000
     20 C27         -7.1060    -4.2960    85.3200 ca         1 A0M      -0.120000
     21 C29         -5.0210    -4.3770    86.5160 ca         1 A0M      -0.106000
     22 C31         -5.9760    -0.3840    87.7040 c3         1 A0M       0.146400
     23 C32         -5.6690     0.8850    88.4650 c3         1 A0M      -0.123100
     24 N18         -1.6830    -1.8340    87.2440 nd         1 A0M      -0.597100
     25 N20         -3.1590    -2.9780    85.8340 n          1 A0M      -0.318500
     26 O7           4.9410    -3.2490    82.3140 oh         1 A0M      -0.497100
     27 O11          3.1560    -1.9810    83.4160 o          1 A0M      -0.598100
     28 O23         -2.4760    -4.2470    84.1020 o          1 A0M      -0.587500
     29 H1           0.7580    -1.1810    87.6930 ha         1 A0M       0.157000
     30 H2          -0.1300    -5.1260    83.3720 hc         1 A0M       0.056367
     31 H3          -0.6140    -3.6680    82.5260 hc         1 A0M       0.056367
     32 H4           1.0790    -4.1070    82.6130 hc         1 A0M       0.056367
     33 H5          -7.1690    -2.9660    83.6340 ha         1 A0M       0.137000
     34 H6          -6.7500    -5.5290    87.0400 ha         1 A0M       0.137000
     35 H7           5.6600    -5.5190    81.6390 hc         1 A0M       0.080700
     36 H8           6.2020    -5.5210    83.3060 hc         1 A0M       0.080700
     37 H9           3.6820    -6.8800    82.2360 hc         1 A0M       0.056700
     38 H10          5.1140    -7.6730    82.8620 hc         1 A0M       0.056700
     39 H11          3.2970    -7.5720    84.6040 hc         1 A0M       0.072700
     40 H12          4.7400    -6.7050    85.0980 hc         1 A0M       0.072700
     41 H15          2.6980    -1.7300    86.2690 ha         1 A0M       0.141000
     42 H16         -4.8400    -2.1890    83.9310 ha         1 A0M       0.147500
     43 H17         -8.1280    -4.6280    85.1950 ha         1 A0M       0.134000
     44 H18         -4.4090    -4.7770    87.3140 ha         1 A0M       0.147500
     45 H19         -6.6600    -0.1880    86.8810 h1         1 A0M       0.062200
     46 H20         -6.4280    -1.1390    88.3490 h1         1 A0M       0.062200
     47 H21         -6.6020     1.2970    88.8500 hc         1 A0M       0.052367
     48 H22         -5.0090     0.7070    89.3120 hc         1 A0M       0.052367
     49 H23         -5.2160     1.6360    87.8180 hc         1 A0M       0.052367
     50 H24          4.3520    -2.4810    82.6100 ho         1 A0M       0.509000
     51 C17          0.1490    -4.0920    83.1760 c3         1 A0M      -0.055800
     52 C24         -3.9910    -1.6840    87.7690 c          1 A0M       0.579800
     53 O8           2.2330    -5.4460    85.4600 o          1 A0M      -0.531100
     54 O30         -4.8030    -0.9310    87.0650 os         1 A0M      -0.406900
     55 O33         -4.0630    -1.9280    88.9410 o          1 A0M      -0.492000
@<TRIPOS>BOND
     1     1    14 1   
     2     1    15 ar  
     3     1    17 ar  
     4     2    15 ar  
     5     2    16 ar  
     6     2    29 1   
     7     3     4 1   
     8     3    16 ar  
     9     3    17 ar  
    10     4    25 1   
    11     4    28 2   
    12     5    19 ar  
    13     5    21 ar  
    14     5    25 1   
    15     6    19 ar  
    16     6    20 ar  
    17     6    33 1   
    18     7    20 ar  
    19     7    21 ar  
    20     7    34 1   
    21     8     9 1   
    22     8    13 1   
    23     8    35 1   
    24     8    36 1   
    25     9    10 1   
    26     9    37 1   
    27     9    38 1   
    28    10    11 1   
    29    10    39 1   
    30    10    40 1   
    31    11    12 1   
    32    11    53 2   
    33    12    13 2   
    34    12    14 1   
    35    13    26 1   
    36    14    27 2   
    37    15    41 1   
    38    16    24 1   
    39    17    51 1   
    40    18    24 2   
    41    18    25 1   
    42    18    52 1   
    43    19    42 1   
    44    20    43 1   
    45    21    44 1   
    46    22    23 1   
    47    22    45 1   
    48    22    46 1   
    49    22    54 1   
    50    23    47 1   
    51    23    48 1   
    52    23    49 1   
    53    26    50 1   
    54    30    51 1   
    55    31    51 1   
    56    32    51 1   
    57    52    54 1   
    58    52    55 2   
@<TRIPOS>SUBSTRUCTURE
     1 A0M         1 TEMP              0 ****  ****    0 ROOT
