@<TRIPOS>MOLECULE
A0M
   55    58     1     0     0
SMALL
No Charge or Current Charge


@<TRIPOS>ATOM
      1 C10          1.9630    -2.7240    85.4940 ca         1 A0M      -0.142600
      2 C13          0.8050    -1.9090    87.4670 ca         1 A0M      -0.103000
      3 C15         -0.4960    -2.7910    85.6200 ca         1 A0M      -0.190600
      4 C21         -1.8500    -3.2310    85.1490 c          1 A0M       0.584600
      5 C22         -4.1920    -3.6070    85.7730 ca         1 A0M       0.023600
      6 C26         -6.1090    -4.2000    84.3700 ca         1 A0M      -0.107000
      7 C28         -6.0790    -4.8580    86.7090 ca         1 A0M      -0.107000
      8 C1           4.4460    -5.5090    82.0840 c6         1 A0M      -0.075200
      9 C2           3.4210    -6.6210    82.3880 c6         1 A0M      -0.064400
     10 C3           3.3330    -6.8370    83.9120 c6         1 A0M      -0.183400
     11 C4           2.9850    -5.5450    84.6600 c          1 A0M       0.609300
     12 C5           3.5680    -4.2790    84.1310 ce         1 A0M      -0.493400
     13 C6           4.2240    -4.2780    82.9490 c2         1 A0M       0.286900
     14 C9           3.2960    -2.9980    84.8400 c          1 A0M       0.635900
     15 C12          1.9930    -2.1670    86.7820 ca         1 A0M      -0.037000
     16 C14         -0.4370    -2.2210    86.9010 ca         1 A0M       0.194400
     17 C16          0.7100    -2.9950    84.8740 ca         1 A0M       0.050700
     18 C19         -2.7540    -2.0840    87.1020 cc         1 A0M       0.484900
     19 C25         -4.8600    -3.5750    84.5290 ca         1 A0M      -0.088000
     20 C27         -6.7170    -4.8460    85.4580 ca         1 A0M      -0.102000
     21 C29         -4.8310    -4.2320    86.8700 ca         1 A0M      -0.088000
     22 C31         -6.2580    -0.6050    87.4870 c3         1 A0M       0.169600
     23 C32         -6.0400     0.8980    87.2200 c3         1 A0M      -0.123100
     24 N18         -1.5510    -1.8630    87.6590 nd         1 A0M      -0.597100
     25 N20         -2.9460    -2.8890    85.9570 n          1 A0M      -0.251500
     26 O7           4.7570    -3.1740    82.4180 oh         1 A0M      -0.536100
     27 O11          4.1150    -2.0910    84.7440 o          1 A0M      -0.598100
     28 O23         -1.9950    -3.9540    84.1720 o          1 A0M      -0.512000
     29 H1           0.8480    -1.4620    88.4570 ha         1 A0M       0.139000
     30 H2           0.5590    -4.5080    83.2980 hc         1 A0M       0.056367
     31 H3          -0.1450    -2.9360    82.8610 hc         1 A0M       0.056367
     32 H4           1.5740    -3.1240    82.8510 hc         1 A0M       0.056367
     33 H5          -6.6100    -4.1740    83.4040 ha         1 A0M       0.119000
     34 H6          -6.5540    -5.3490    87.5560 ha         1 A0M       0.119000
     35 H7           4.3930    -5.2410    81.0200 hc         1 A0M       0.080700
     36 H8           5.4640    -5.8840    82.2580 hc         1 A0M       0.080700
     37 H9           2.4340    -6.3360    81.9960 hc         1 A0M       0.056700
     38 H10          3.7080    -7.5530    81.8810 hc         1 A0M       0.056700
     39 H11          2.6390    -7.6390    84.1960 hc         1 A0M       0.072700
     40 H12          4.3360    -7.1270    84.2510 hc         1 A0M       0.072700
     41 H15          2.9450    -1.9350    87.2570 ha         1 A0M       0.123000
     42 H16         -4.4160    -3.0540    83.6840 ha         1 A0M       0.129500
     43 H17         -7.6850    -5.3270    85.3350 ha         1 A0M       0.116000
     44 H18         -4.3520    -4.2530    87.8460 ha         1 A0M       0.129500
     45 H19         -7.1560    -0.9280    86.9440 h1         1 A0M       0.062200
     46 H20         -6.4340    -0.7880    88.5560 h1         1 A0M       0.062200
     47 H21         -6.9380     1.4620    87.4990 hc         1 A0M       0.052367
     48 H22         -5.2000     1.2910    87.8020 hc         1 A0M       0.052367
     49 H23         -5.8430     1.0750    86.1560 hc         1 A0M       0.052367
     50 H24          4.6760    -2.4920    83.1320 ho         1 A0M       0.548000
     51 C17          0.6750    -3.4220    83.3990 c3         1 A0M      -0.055800
     52 C24         -3.9410    -1.3600    87.7400 c          1 A0M       0.530800
     53 O8           2.2790    -5.5850    85.6540 o          1 A0M      -0.531100
     54 O30         -5.1120    -1.3350    87.0030 os         1 A0M      -0.430100
     55 O33         -3.8660    -0.7880    88.8260 o          1 A0M      -0.443000
@<TRIPOS>BOND
     1     1    14 1   
     2     1    15 ar  
     3     1    17 ar  
     4     2    15 ar  
     5     2    16 ar  
     6     2    29 1   
     7     3     4 1   
     8     3    16 ar  
     9     3    17 ar  
    10     4    25 1   
    11     4    28 2   
    12     5    19 ar  
    13     5    21 ar  
    14     5    25 1   
    15     6    19 ar  
    16     6    20 ar  
    17     6    33 1   
    18     7    20 ar  
    19     7    21 ar  
    20     7    34 1   
    21     8     9 1   
    22     8    13 1   
    23     8    35 1   
    24     8    36 1   
    25     9    10 1   
    26     9    37 1   
    27     9    38 1   
    28    10    11 1   
    29    10    39 1   
    30    10    40 1   
    31    11    12 1   
    32    11    53 2   
    33    12    13 2   
    34    12    14 1   
    35    13    26 1   
    36    14    27 2   
    37    15    41 1   
    38    16    24 1   
    39    17    51 1   
    40    18    24 2   
    41    18    25 1   
    42    18    52 1   
    43    19    42 1   
    44    20    43 1   
    45    21    44 1   
    46    22    23 1   
    47    22    45 1   
    48    22    46 1   
    49    22    54 1   
    50    23    47 1   
    51    23    48 1   
    52    23    49 1   
    53    26    50 1   
    54    30    51 1   
    55    31    51 1   
    56    32    51 1   
    57    52    54 1   
    58    52    55 2   
@<TRIPOS>SUBSTRUCTURE
     1 A0M         1 TEMP              0 ****  ****    0 ROOT
