@<TRIPOS>MOLECULE
A0O
   34    35     1     0     0
SMALL
No Charge or Current Charge


@<TRIPOS>ATOM
      1 C10         -1.1010     2.6190    -0.6840 ca         1 A0O      -0.014000
      2 C13          0.5700    -3.1470    -0.2490 c2         1 A0O      -0.103400
      3 C15          2.7000     1.1060     0.4130 c          1 A0O       0.674300
      4 C17          0.5560    -4.1930    -1.3500 c3         1 A0O      -0.056900
      5 O01          1.5450     0.4040     0.6030 os         1 A0O      -0.338200
      6 O03          3.7880     0.6510     0.7330 o          1 A0O      -0.488000
      7 C04         -0.8350     0.0600     0.4830 ca         1 A0O      -0.134300
      8 C05         -0.6790    -1.3300     1.1060 c3         1 A0O       0.028100
      9 C06          0.3000     0.8710     0.2560 ca         1 A0O       0.213100
     10 C07          0.1710     2.1480    -0.3250 ca         1 A0O      -0.199800
     11 C08         -2.1100     0.5410     0.1090 ca         1 A0O       0.190100
     12 C09         -0.5160    -2.4040     0.0420 c2         1 A0O      -0.224200
     13 C11         -2.2350     1.8220    -0.4700 ca         1 A0O      -0.226000
     14 C12          1.3430     2.9820    -0.5600 cc         1 A0O      -0.054200
     15 C14          2.5560     2.4420    -0.1910 cd         1 A0O      -0.336200
     16 C16          1.9280    -3.0650     0.4360 c3         1 A0O      -0.056900
     17 C18         -4.5470     0.1310    -0.0400 c3         1 A0O       0.147900
     18 H101        -1.2140     3.6040    -1.1330 ha         1 A0O       0.118000
     19 H173         0.7830    -5.1890    -0.9510 hc         1 A0O       0.040033
     20 H172        -0.4200    -4.2520    -1.8440 hc         1 A0O       0.040033
     21 H171         1.3010    -3.9640    -2.1210 hc         1 A0O       0.040033
     22 H052         0.1470    -1.3350     1.8230 hc         1 A0O       0.062200
     23 H051        -1.5550    -1.5690     1.7210 hc         1 A0O       0.062200
     24 H2          -1.4330    -2.5580    -0.5300 ha         1 A0O       0.166000
     25 H111        -3.2020     2.2170    -0.7650 ha         1 A0O       0.124000
     26 H121         1.2810     3.9750    -1.0040 ha         1 A0O       0.189000
     27 H141         3.4880     2.9770    -0.3250 ha         1 A0O       0.213000
     28 H162         2.1910    -4.0240     0.8980 hc         1 A0O       0.040033
     29 H163         2.7140    -2.8200    -0.2880 hc         1 A0O       0.040033
     30 H161         1.9750    -2.3060     1.2220 hc         1 A0O       0.040033
     31 H182        -5.2610    -0.6630     0.2130 h1         1 A0O       0.045367
     32 H183        -4.8420     1.0380     0.5030 h1         1 A0O       0.045367
     33 H181        -4.6210     0.3240    -1.1180 h1         1 A0O       0.045367
     34 O02         -3.2120    -0.2690     0.3180 os         1 A0O      -0.333100
@<TRIPOS>BOND
     1     1    10 ar  
     2     1    13 ar  
     3     1    18 1   
     4     2     4 1   
     5     2    12 2   
     6     2    16 1   
     7     3     5 1   
     8     3     6 2   
     9     3    15 1   
    10     4    19 1   
    11     4    20 1   
    12     4    21 1   
    13     5     9 1   
    14     7     8 1   
    15     7     9 ar  
    16     7    11 ar  
    17     8    12 1   
    18     8    22 1   
    19     8    23 1   
    20     9    10 ar  
    21    10    14 1   
    22    11    13 ar  
    23    11    34 1   
    24    12    24 1   
    25    13    25 1   
    26    14    15 2   
    27    14    26 1   
    28    15    27 1   
    29    16    28 1   
    30    16    29 1   
    31    16    30 1   
    32    17    31 1   
    33    17    32 1   
    34    17    33 1   
    35    17    34 1   
@<TRIPOS>SUBSTRUCTURE
     1 A0O         1 TEMP              0 ****  ****    0 ROOT
