@<TRIPOS>MOLECULE
A0O
   34    35     1     0     0
SMALL
bcc


@<TRIPOS>ATOM
      1 C10         -1.1370     2.5940    -0.7110 ca         1 A0O      -0.032000
      2 C13          0.5540    -3.1200    -0.2500 c2         1 A0O      -0.103400
      3 C15          2.6510     1.1460     0.4160 c          1 A0O       0.749800
      4 C17          0.5060    -4.1150    -1.3750 c3         1 A0O      -0.056900
      5 O01          1.4980     0.4460     0.5870 os         1 A0O      -0.338200
      6 O03          3.6730     0.6220     0.7860 o          1 A0O      -0.563500
      7 C04         -0.8090     0.0680     0.4840 ca         1 A0O      -0.134300
      8 C05         -0.6280    -1.3020     1.0890 c3         1 A0O       0.028100
      9 C06          0.2730     0.9010     0.2330 ca         1 A0O       0.213100
     10 C07          0.1400     2.1630    -0.3550 ca         1 A0O      -0.199800
     11 C08         -2.0740     0.5350     0.1020 ca         1 A0O       0.190100
     12 C09         -0.5010    -2.3460     0.0160 c2         1 A0O      -0.174200
     13 C11         -2.2370     1.7960    -0.4880 ca         1 A0O      -0.244000
     14 C12          1.3290     2.9320    -0.5590 cc         1 A0O      -0.004200
     15 C14          2.5330     2.4520    -0.1920 cd         1 A0O      -0.286200
     16 C16          1.8510    -3.1070     0.5010 c3         1 A0O      -0.056900
     17 C18         -4.4090     0.0930    -0.0130 c3         1 A0O       0.124700
     18 H101        -1.2620     3.5670    -1.1690 ha         1 A0O       0.136000
     19 H173         0.6640    -5.1310    -1.0040 hc         1 A0O       0.040033
     20 H172        -0.4460    -4.0940    -1.9050 hc         1 A0O       0.040033
     21 H171         1.3020    -3.9220    -2.0980 hc         1 A0O       0.040033
     22 H052         0.2370    -1.3060     1.7500 hc         1 A0O       0.062200
     23 H051        -1.4890    -1.5320     1.7200 hc         1 A0O       0.062200
     24 H2          -1.3810    -2.4590    -0.6120 ha         1 A0O       0.116000
     25 H111        -3.2140     2.1560    -0.7760 ha         1 A0O       0.142000
     26 H121         1.2470     3.9110    -1.0150 ha         1 A0O       0.139000
     27 H141         3.4430     3.0160    -0.3350 ha         1 A0O       0.163000
     28 H162         2.0340    -4.0840     0.9570 hc         1 A0O       0.040033
     29 H163         2.6830    -2.9300    -0.1850 hc         1 A0O       0.040033
     30 H161         1.9060    -2.3560     1.2850 hc         1 A0O       0.040033
     31 H182        -5.0570    -0.7320     0.2680 h1         1 A0O       0.045367
     32 H183        -4.7210     0.9880     0.5300 h1         1 A0O       0.045367
     33 H181        -4.5100     0.2730    -1.0860 h1         1 A0O       0.045367
     34 O02         -3.0940    -0.3010     0.3330 os         1 A0O      -0.309900
@<TRIPOS>BOND
     1     1    10 ar  
     2     1    13 ar  
     3     1    18 1   
     4     2     4 1   
     5     2    12 2   
     6     2    16 1   
     7     3     5 1   
     8     3     6 2   
     9     3    15 1   
    10     4    19 1   
    11     4    20 1   
    12     4    21 1   
    13     5     9 1   
    14     7     8 1   
    15     7     9 ar  
    16     7    11 ar  
    17     8    12 1   
    18     8    22 1   
    19     8    23 1   
    20     9    10 ar  
    21    10    14 1   
    22    11    13 ar  
    23    11    34 1   
    24    12    24 1   
    25    13    25 1   
    26    14    15 2   
    27    14    26 1   
    28    15    27 1   
    29    16    28 1   
    30    16    29 1   
    31    16    30 1   
    32    17    31 1   
    33    17    32 1   
    34    17    33 1   
    35    17    34 1   
@<TRIPOS>SUBSTRUCTURE
     1 A0O         1 TEMP              0 ****  ****    0 ROOT
