@<TRIPOS>MOLECULE
A0P
   44    46     1     0     0
SMALL
bcc


@<TRIPOS>ATOM
      1 N1          -7.7080     1.9900     1.0190 nb         1 A0P      -0.845000
      2 C2          -7.1440     1.0040     1.7140 ca         1 A0P       0.620900
      3 N3          -5.9560     0.4520     1.5420 nb         1 A0P      -0.746000
      4 C4          -5.3000     1.0090     0.5240 ca         1 A0P       0.438800
      5 C5          -5.7520     2.0370    -0.2880 ca         1 A0P      -0.224200
      6 C6          -7.0350     2.5380     0.0000 ca         1 A0P       0.707200
      7 N6          -7.5990     3.5230    -0.7010 nv         1 A0P      -0.986500
      8 N7          -4.8140     2.3550    -1.2350 nc         1 A0P      -0.612100
      9 C8          -3.8280     1.5380    -0.9990 cd         1 A0P       0.441700
     10 N9          -4.0590     0.7000     0.0530 na         1 A0P      -0.260000
     11 PA           1.9970    -2.1130     0.0780 p5         1 A0P       1.449800
     12 PB           4.4290    -0.6450     0.7290 p5         1 A0P       1.435700
     13 PG           6.4700     1.4870     0.0860 p5         1 A0P       1.280800
     14 C1          -3.1930    -0.3460     0.5900 c5         1 A0P       0.273800
     15 O1A          1.8100    -2.5530     1.5000 o          1 A0P      -0.876500
     16 O1B          4.2060     0.0600     2.0350 o          1 A0P      -0.883000
     17 O1G          7.3790     0.6850     1.0180 o          1 A0P      -0.904500
     18 C7          -3.6970    -1.7370     0.2060 c5         1 A0P       0.064100
     19 O2          -3.2320    -2.6200     1.1900 oh         1 A0P      -0.549800
     20 O2A          2.3490    -3.1250    -0.9720 o          1 A0P      -0.876500
     21 O2B          5.0260    -2.0290     0.7220 o          1 A0P      -0.883000
     22 O2G          7.0940     1.7880    -1.2800 o          1 A0P      -0.904500
     23 C3          -3.0010    -1.9520    -1.1460 c5         1 A0P       0.056100
     24 O3          -3.7110    -1.3500    -2.2000 oh         1 A0P      -0.586800
     25 O3A          2.9250    -0.7890    -0.0280 os         1 A0P      -0.693800
     26 N3B          5.1330     0.4050    -0.3700 n7         1 A0P      -0.891400
     27 O3G          5.8140     2.6950     0.7490 o          1 A0P      -0.904500
     28 C9          -1.6830    -1.2010    -0.9660 c5         1 A0P       0.136100
     29 O4          -1.9200    -0.2230     0.0570 os         1 A0P      -0.332600
     30 C10         -0.5330    -2.1020    -0.5700 c3         1 A0P       0.204400
     31 O5           0.6230    -1.3180    -0.4140 os         1 A0P      -0.517200
     32 H2          -7.7430     0.6050     2.5250 h5         1 A0P       0.011100
     33 HN6         -7.1080     3.9680    -1.4570 hn         1 A0P       0.427800
     34 HN6A        -8.5120     3.8650    -0.4560 hn         1 A0P       0.427800
     35 H8          -2.9070     1.5130    -1.5580 h5         1 A0P       0.093800
     36 H1          -3.1620    -0.2140     1.6750 h2         1 A0P       0.118700
     37 H6          -4.7890    -1.7700     0.1130 h1         1 A0P       0.032700
     38 HO2         -3.4630    -3.5180     0.9340 ho         1 A0P       0.392000
     39 H3          -2.8350    -3.0210    -1.3350 h1         1 A0P       0.046700
     40 HO3         -4.5720    -1.7750    -2.2720 ho         1 A0P       0.377000
     41 HN3B         5.3200    -0.0360    -1.2630 hn         1 A0P       0.337800
     42 H4          -1.4180    -0.6780    -1.8910 h1         1 A0P       0.085700
     43 H5          -0.7820    -2.6420     0.3500 h1         1 A0P       0.008700
     44 H5'A        -0.4060    -2.8500    -1.3630 h1         1 A0P       0.008700
@<TRIPOS>BOND
     1     1     2 ar  
     2     1     6 ar  
     3     2     3 ar  
     4     2    32 1   
     5     3     4 ar  
     6     4     5 ar  
     7     4    10 1   
     8     5     6 ar  
     9     5     8 1   
    10     6     7 1   
    11     7    33 1   
    12     7    34 1   
    13     8     9 2   
    14     9    10 1   
    15     9    35 1   
    16    10    14 1   
    17    11    15 1   
    18    11    20 1   
    19    11    25 1   
    20    11    31 1   
    21    12    16 1   
    22    12    21 1   
    23    12    25 1   
    24    12    26 1   
    25    13    17 1   
    26    13    22 1   
    27    13    26 1   
    28    13    27 1   
    29    14    18 1   
    30    14    29 1   
    31    14    36 1   
    32    18    19 1   
    33    18    23 1   
    34    18    37 1   
    35    19    38 1   
    36    23    24 1   
    37    23    28 1   
    38    23    39 1   
    39    24    40 1   
    40    26    41 1   
    41    28    29 1   
    42    28    30 1   
    43    28    42 1   
    44    30    31 1   
    45    30    43 1   
    46    30    44 1   
@<TRIPOS>SUBSTRUCTURE
     1 A0P         1 TEMP              0 ****  ****    0 ROOT
