@<TRIPOS>MOLECULE
A0P
   44    46     1     0     0
SMALL
No Charge or Current Charge


@<TRIPOS>ATOM
      1 N1          -7.1660     2.6320     0.7480 nb         1 A0P      -0.319000
      2 C2          -6.8860     1.5170     1.4640 ca         1 A0P       0.094900
      3 N3          -5.7860     0.7350     1.3470 nb         1 A0P      -0.220000
      4 C4          -4.8860     1.1190     0.4180 ca         1 A0P       0.110500
      5 C5          -5.0730     2.2330    -0.3630 ca         1 A0P      -0.093600
      6 C6          -6.2530     2.9860    -0.1710 ca         1 A0P       0.378900
      7 N6          -6.5360     4.1090    -0.8870 nv         1 A0P      -1.096900
      8 N7          -4.0220     2.4450    -1.2480 nc         1 A0P      -0.612100
      9 C8          -3.2050     1.4080    -0.9650 cd         1 A0P       0.441700
     10 N9          -3.6870     0.5660     0.0530 na         1 A0P      -0.289300
     11 PA           2.0060    -2.5310     0.9400 p5         1 A0P       1.449800
     12 PB           3.5700    -0.5600     0.1670 p5         1 A0P       1.435700
     13 PG           3.9810     1.9860    -0.8740 p5         1 A0P       1.280800
     14 C1          -3.0550    -0.6470     0.5620 c5         1 A0P       0.326300
     15 O1A          3.0670    -2.9680     1.8970 o          1 A0P      -0.876500
     16 O1B          4.3510    -0.1370     1.3660 o          1 A0P      -0.883000
     17 O1G          5.4080     1.6500    -1.0930 o          1 A0P      -0.904500
     18 C7          -3.3900    -1.9640    -0.2360 c5         1 A0P       0.087300
     19 O2          -3.6610    -3.0760     0.6350 oh         1 A0P      -0.672000
     20 O2A          1.8650    -3.4710    -0.2120 o          1 A0P      -0.876500
     21 O2B          4.2800    -1.4240    -0.8110 o          1 A0P      -0.883000
     22 O2G          3.4310     2.6460    -2.0830 o          1 A0P      -0.904500
     23 C3          -2.0730    -2.1710    -1.0550 c5         1 A0P       0.079300
     24 O3          -2.0600    -1.3900    -2.2630 oh         1 A0P      -0.709000
     25 O3A          2.1010    -1.0180     0.4970 os         1 A0P      -0.693800
     26 N3B          3.1250     0.6520    -0.7580 n7         1 A0P      -0.946600
     27 O3G          3.7530     2.8330     0.3250 o          1 A0P      -0.904500
     28 C9          -1.0030    -1.6690    -0.0290 c5         1 A0P       0.159300
     29 O4          -1.6150    -0.4750     0.5200 os         1 A0P      -0.379000
     30 C10         -0.6700    -2.6800     1.1220 c3         1 A0P       0.227600
     31 O5           0.6070    -2.4260     1.7410 os         1 A0P      -0.540400
     32 H2          -7.6190     1.2190     2.2110 h5         1 A0P       0.011100
     33 HN6         -5.7750     4.5100    -1.4310 hn         1 A0P       0.483000
     34 HN6A        -7.2330     4.7540    -0.5230 hn         1 A0P       0.483000
     35 H8          -2.2560     1.2070    -1.4510 h5         1 A0P       0.093800
     36 H1          -3.3890    -0.7500     1.6030 h2         1 A0P       0.118700
     37 H6          -4.2510    -1.8060    -0.9000 h1         1 A0P       0.032700
     38 HO2         -4.1150    -3.7670     0.0990 ho         1 A0P       0.491000
     39 H3          -1.9130    -3.2310    -1.3000 h1         1 A0P       0.046700
     40 HO3         -2.5970    -1.8730    -2.9330 ho         1 A0P       0.476000
     41 HN3B         3.5670     0.1660    -1.5190 hn         1 A0P       0.393000
     42 H4          -0.0870    -1.3930    -0.5610 h1         1 A0P       0.085700
     43 H5          -1.4540    -2.6370     1.8880 h1         1 A0P       0.008700
     44 H5'A        -0.6800    -3.6970     0.7090 h1         1 A0P       0.008700
@<TRIPOS>BOND
     1     1     2 ar  
     2     1     6 ar  
     3     2     3 ar  
     4     2    32 1   
     5     3     4 ar  
     6     4     5 ar  
     7     4    10 1   
     8     5     6 ar  
     9     5     8 1   
    10     6     7 1   
    11     7    33 1   
    12     7    34 1   
    13     8     9 2   
    14     9    10 1   
    15     9    35 1   
    16    10    14 1   
    17    11    15 1   
    18    11    20 1   
    19    11    25 1   
    20    11    31 1   
    21    12    16 1   
    22    12    21 1   
    23    12    25 1   
    24    12    26 1   
    25    13    17 1   
    26    13    22 1   
    27    13    26 1   
    28    13    27 1   
    29    14    18 1   
    30    14    29 1   
    31    14    36 1   
    32    18    19 1   
    33    18    23 1   
    34    18    37 1   
    35    19    38 1   
    36    23    24 1   
    37    23    28 1   
    38    23    39 1   
    39    24    40 1   
    40    26    41 1   
    41    28    29 1   
    42    28    30 1   
    43    28    42 1   
    44    30    31 1   
    45    30    43 1   
    46    30    44 1   
@<TRIPOS>SUBSTRUCTURE
     1 A0P         1 TEMP              0 ****  ****    0 ROOT
