@<TRIPOS>MOLECULE
A0Q
   56    59     1     0     0
SMALL
No Charge or Current Charge


@<TRIPOS>ATOM
      1 C1          -1.4320     0.0850     0.1270 ca         1 A0Q      -0.091000
      2 C2          -0.0300     0.3150     0.1630 ca         1 A0Q      -0.169600
      3 C3           0.4430     1.6440     0.0120 ca         1 A0Q       0.161100
      4 C4          -0.4810     2.6990    -0.1620 ca         1 A0Q      -0.176000
      5 C5          -1.8620     2.4450    -0.1900 ca         1 A0Q      -0.109000
      6 C6          -2.3510     1.1350    -0.0490 ca         1 A0Q       0.251000
      7 O7           1.8040     1.8830     0.0010 os         1 A0Q      -0.330100
      8 C8           2.3640     3.1990    -0.1490 c3         1 A0Q       0.213900
      9 C9           3.8820     3.0830    -0.1110 ca         1 A0Q      -0.098300
     10 N10         -3.7400     0.8580    -0.0710 nh         1 A0Q      -0.782400
     11 C11          0.9260    -0.8500     0.3690 c          1 A0Q       0.637700
     12 N12          0.4160    -2.0930     0.0070 ns         1 A0Q      -0.142000
     13 O13          2.0370    -0.7140     0.8680 o          1 A0Q      -0.562100
     14 C14          0.9620    -3.4100     0.0530 ca         1 A0Q      -0.066000
     15 C15          2.2900    -3.7000     0.4390 ca         1 A0Q      -0.101000
     16 C16          2.7070    -5.0430     0.4390 ca         1 A0Q      -0.136000
     17 C17          1.8020    -6.0480     0.0580 ca         1 A0Q       0.301900
     18 N18          0.5300    -5.7830    -0.3170 nb         1 A0Q      -0.644000
     19 C19          0.1300    -4.4900    -0.3170 ca         1 A0Q       0.280900
     20 C20          4.5660     3.1160     1.1210 ca         1 A0Q      -0.087500
     21 C21          5.9680     3.0100     1.1570 ca         1 A0Q      -0.114500
     22 C22          6.6940     2.8680    -0.0380 ca         1 A0Q      -0.102000
     23 C23          6.0170     2.8320    -1.2690 ca         1 A0Q      -0.114500
     24 C24          4.6150     2.9380    -1.3060 ca         1 A0Q      -0.087500
     25 C25         -4.2980    -0.1200    -1.0610 c6         1 A0Q       0.194300
     26 C26         -5.6740    -0.7120    -0.6110 c6         1 A0Q       0.159300
     27 N27         -6.6760     0.3440    -0.2680 n3         1 A0Q      -0.716600
     28 C28         -6.1110     1.2560     0.7740 c6         1 A0Q       0.159300
     29 C29         -4.7440     1.8870     0.3520 c6         1 A0Q       0.194300
     30 C30         -7.9890    -0.2170     0.1150 c3         1 A0Q       0.153100
     31 H1          -1.8320    -0.9140     0.2730 ha         1 A0Q       0.124000
     32 H2          -0.1510     3.7260    -0.2860 ha         1 A0Q       0.121000
     33 H3          -2.5470     3.2750    -0.3360 ha         1 A0Q       0.117000
     34 H4           2.0560     3.6450    -1.1040 h1         1 A0Q       0.041200
     35 H5           2.0280     3.8580     0.6620 h1         1 A0Q       0.041200
     36 H6          -0.5180    -2.0540    -0.3800 hn         1 A0Q       0.156000
     37 H7           2.9960    -2.9270     0.7280 ha         1 A0Q       0.153000
     38 H8           3.7200    -5.3080     0.7290 ha         1 A0Q       0.124000
     39 H9           2.1050    -7.0940     0.0510 h4         1 A0Q       0.020100
     40 H10         -0.9000    -4.3120    -0.6240 h4         1 A0Q       0.011100
     41 H11          4.0110     3.2220     2.0500 ha         1 A0Q       0.123000
     42 H12          6.4900     3.0360     2.1100 ha         1 A0Q       0.113500
     43 H13          7.7780     2.7850    -0.0100 ha         1 A0Q       0.112000
     44 H14          6.5780     2.7210    -2.1950 ha         1 A0Q       0.113500
     45 H15          4.0990     2.9070    -2.2630 ha         1 A0Q       0.123000
     46 H16         -4.4310     0.3780    -2.0320 h1         1 A0Q       0.042700
     47 H17         -3.6000    -0.9550    -1.2210 h1         1 A0Q       0.042700
     48 H18         -6.0580    -1.3520    -1.4190 h1         1 A0Q       0.040950
     49 H19         -5.5030    -1.3640     0.2580 h1         1 A0Q       0.040950
     50 H21         -6.8180     2.0700     0.9910 h1         1 A0Q       0.040950
     51 H22         -5.9620     0.7050     1.7140 h1         1 A0Q       0.040950
     52 H23         -4.3570     2.4680     1.2020 h1         1 A0Q       0.042700
     53 H24         -4.9220     2.5920    -0.4730 h1         1 A0Q       0.042700
     54 H25         -7.9030    -0.8350     1.0200 h1         1 A0Q       0.032367
     55 H26         -8.7100     0.5860     0.3140 h1         1 A0Q       0.032367
     56 H27         -8.3930    -0.8430    -0.6920 h1         1 A0Q       0.032367
@<TRIPOS>BOND
     1     1     2 ar  
     2     1     6 ar  
     3     1    31 1   
     4     2     3 ar  
     5     2    11 1   
     6     3     4 ar  
     7     3     7 1   
     8     4     5 ar  
     9     4    32 1   
    10     5     6 ar  
    11     5    33 1   
    12     6    10 1   
    13     7     8 1   
    14     8     9 1   
    15     8    34 1   
    16     8    35 1   
    17     9    20 ar  
    18     9    24 ar  
    19    10    25 1   
    20    10    29 1   
    21    11    12 1   
    22    11    13 2   
    23    12    14 1   
    24    12    36 1   
    25    14    15 ar  
    26    14    19 ar  
    27    15    16 ar  
    28    15    37 1   
    29    16    17 ar  
    30    16    38 1   
    31    17    18 ar  
    32    17    39 1   
    33    18    19 ar  
    34    19    40 1   
    35    20    21 ar  
    36    20    41 1   
    37    21    22 ar  
    38    21    42 1   
    39    22    23 ar  
    40    22    43 1   
    41    23    24 ar  
    42    23    44 1   
    43    24    45 1   
    44    25    26 1   
    45    25    46 1   
    46    25    47 1   
    47    26    27 1   
    48    26    48 1   
    49    26    49 1   
    50    27    28 1   
    51    27    30 1   
    52    28    29 1   
    53    28    50 1   
    54    28    51 1   
    55    29    52 1   
    56    29    53 1   
    57    30    54 1   
    58    30    55 1   
    59    30    56 1   
@<TRIPOS>SUBSTRUCTURE
     1 A0Q         1 TEMP              0 ****  ****    0 ROOT
