@<TRIPOS>MOLECULE
A0Q
   56    59     1     0     0
SMALL
abcg2


@<TRIPOS>ATOM
      1 C1          -1.5100     0.0470     0.2370 ca         1 A0Q      -0.091000
      2 C2          -0.1450     0.2620     0.1550 ca         1 A0Q      -0.169600
      3 C3           0.3510     1.5260    -0.1900 ca         1 A0Q       0.161100
      4 C4          -0.5550     2.5470    -0.4330 ca         1 A0Q      -0.176000
      5 C5          -1.9250     2.3180    -0.3490 ca         1 A0Q      -0.109000
      6 C6          -2.4380     1.0670    -0.0120 ca         1 A0Q       0.251000
      7 O7           1.6880     1.6440    -0.3000 os         1 A0Q      -0.330100
      8 C8           2.2490     2.9390    -0.4090 c3         1 A0Q       0.213900
      9 C9           3.7390     2.8210    -0.2670 ca         1 A0Q      -0.098300
     10 N10         -3.8040     0.8080     0.1260 nh         1 A0Q      -0.782400
     11 C11          0.7950    -0.8430     0.5190 c          1 A0Q       0.637700
     12 N12          0.5750    -1.9870    -0.1820 ns         1 A0Q      -0.142000
     13 O13          1.6490    -0.7220     1.3760 o          1 A0Q      -0.562100
     14 C14          1.2020    -3.2240    -0.0520 ca         1 A0Q      -0.066000
     15 C15          2.2340    -3.5220     0.8350 ca         1 A0Q      -0.101000
     16 C16          2.7470    -4.8110     0.8330 ca         1 A0Q      -0.136000
     17 C17          2.2310    -5.7550    -0.0380 ca         1 A0Q       0.301900
     18 N18          1.2470    -5.4750    -0.8860 nb         1 A0Q      -0.644000
     19 C19          0.7520    -4.2510    -0.8900 ca         1 A0Q       0.280900
     20 C20          4.3000     2.0250     0.7300 ca         1 A0Q      -0.087500
     21 C21          5.6780     1.9610     0.8810 ca         1 A0Q      -0.114500
     22 C22          6.5100     2.6920     0.0420 ca         1 A0Q      -0.102000
     23 C23          5.9570     3.4840    -0.9540 ca         1 A0Q      -0.114500
     24 C24          4.5780     3.5430    -1.1090 ca         1 A0Q      -0.087500
     25 C25         -4.3300    -0.3350    -0.6080 c6         1 A0Q       0.194300
     26 C26         -5.7010    -0.7150    -0.0860 c6         1 A0Q       0.159300
     27 N27         -6.6080     0.4100    -0.1690 n3         1 A0Q      -0.716600
     28 C28         -6.0810     1.5270     0.5850 c6         1 A0Q       0.159300
     29 C29         -4.7130     1.9350     0.0710 c6         1 A0Q       0.194300
     30 C30         -7.9430     0.0570     0.2540 c3         1 A0Q       0.153100
     31 H1          -1.8630    -0.9270     0.5510 ha         1 A0Q       0.124000
     32 H2          -0.2200     3.5340    -0.7190 ha         1 A0Q       0.121000
     33 H3          -2.5850     3.1470    -0.5640 ha         1 A0Q       0.117000
     34 H4           1.9940     3.3970    -1.3710 h1         1 A0Q       0.041200
     35 H5           1.8480     3.5880     0.3780 h1         1 A0Q       0.041200
     36 H6          -0.1310    -1.9370    -0.9010 hn         1 A0Q       0.156000
     37 H7           2.6350    -2.7830     1.5080 ha         1 A0Q       0.153000
     38 H8           3.5500    -5.0740     1.5080 ha         1 A0Q       0.124000
     39 H9           2.6190    -6.7660    -0.0540 h4         1 A0Q       0.020100
     40 H10         -0.0520    -4.0530    -1.5940 h4         1 A0Q       0.011100
     41 H11          3.6610     1.4470     1.3860 ha         1 A0Q       0.123000
     42 H12          6.1040     1.3400     1.6590 ha         1 A0Q       0.113500
     43 H13          7.5850     2.6410     0.1640 ha         1 A0Q       0.112000
     44 H14          6.5970     4.0520    -1.6160 ha         1 A0Q       0.113500
     45 H15          4.1520     4.1540    -1.8950 ha         1 A0Q       0.123000
     46 H16         -4.3980    -0.1080    -1.6830 h1         1 A0Q       0.042700
     47 H17         -3.6680    -1.1920    -0.5000 h1         1 A0Q       0.042700
     48 H18         -6.0910    -1.5380    -0.6900 h1         1 A0Q       0.040950
     49 H19         -5.6040    -1.0890     0.9480 h1         1 A0Q       0.040950
     50 H21         -6.7600     2.3770     0.4900 h1         1 A0Q       0.040950
     51 H22         -6.0030     1.2920     1.6610 h1         1 A0Q       0.040950
     52 H23         -4.3350     2.7400     0.7030 h1         1 A0Q       0.042700
     53 H24         -4.8110     2.3340    -0.9510 h1         1 A0Q       0.042700
     54 H25         -7.9970    -0.2620     1.3060 h1         1 A0Q       0.032367
     55 H26         -8.6120     0.9090     0.1300 h1         1 A0Q       0.032367
     56 H27         -8.3240    -0.7610    -0.3600 h1         1 A0Q       0.032367
@<TRIPOS>BOND
     1     1     2 ar  
     2     1     6 ar  
     3     1    31 1   
     4     2     3 ar  
     5     2    11 1   
     6     3     4 ar  
     7     3     7 1   
     8     4     5 ar  
     9     4    32 1   
    10     5     6 ar  
    11     5    33 1   
    12     6    10 1   
    13     7     8 1   
    14     8     9 1   
    15     8    34 1   
    16     8    35 1   
    17     9    20 ar  
    18     9    24 ar  
    19    10    25 1   
    20    10    29 1   
    21    11    12 1   
    22    11    13 2   
    23    12    14 1   
    24    12    36 1   
    25    14    15 ar  
    26    14    19 ar  
    27    15    16 ar  
    28    15    37 1   
    29    16    17 ar  
    30    16    38 1   
    31    17    18 ar  
    32    17    39 1   
    33    18    19 ar  
    34    19    40 1   
    35    20    21 ar  
    36    20    41 1   
    37    21    22 ar  
    38    21    42 1   
    39    22    23 ar  
    40    22    43 1   
    41    23    24 ar  
    42    23    44 1   
    43    24    45 1   
    44    25    26 1   
    45    25    46 1   
    46    25    47 1   
    47    26    27 1   
    48    26    48 1   
    49    26    49 1   
    50    27    28 1   
    51    27    30 1   
    52    28    29 1   
    53    28    50 1   
    54    28    51 1   
    55    29    52 1   
    56    29    53 1   
    57    30    54 1   
    58    30    55 1   
    59    30    56 1   
@<TRIPOS>SUBSTRUCTURE
     1 A0Q         1 TEMP              0 ****  ****    0 ROOT
