@<TRIPOS>MOLECULE
A0R
   34    35     1     0     0
SMALL
bcc


@<TRIPOS>ATOM
      1 CAT          5.1210     2.1460    -0.3810 c3         1 A0R       0.125700
      2 OAS          3.8960     1.4610    -0.1980 os         1 A0R      -0.315900
      3 CAN          3.9070     0.1300    -0.0370 ca         1 A0R       0.172100
      4 CAL          5.0710    -0.6360    -0.0640 ca         1 A0R      -0.226000
      5 CAM          5.0010    -2.0100     0.1050 ca         1 A0R      -0.069000
      6 CAO          3.7790    -2.6400     0.3030 ca         1 A0R      -0.174000
      7 CAP          2.6250    -1.8790     0.3280 ca         1 A0R      -0.069000
      8 CAK          2.6540    -0.4920     0.1560 ca         1 A0R      -0.120800
      9 CAI          1.4420     0.3130     0.1820 ce         1 A0R       0.007800
     10 CAH          0.1840    -0.1550     0.1260 cf         1 A0R      -0.275200
     11 CAG         -0.9590     0.7620     0.1700 c          1 A0R       0.614900
     12 OAJ         -0.7700     1.9810     0.3050 o          1 A0R      -0.599100
     13 CAA         -2.3210     0.2470     0.0490 ca         1 A0R      -0.329600
     14 CAB         -2.6230    -1.1160    -0.0970 ca         1 A0R       0.007000
     15 CAD         -3.9120    -1.5770    -0.2080 ca         1 A0R      -0.294000
     16 CAF         -4.9710    -0.6590    -0.1780 ca         1 A0R       0.215100
     17 OAR         -6.2470    -1.0430    -0.2830 oh         1 A0R      -0.484100
     18 CAE         -4.7190     0.6970    -0.0360 ca         1 A0R      -0.249000
     19 CAC         -3.4120     1.1570     0.0780 ca         1 A0R       0.261100
     20 OAQ         -3.2260     2.4650     0.2150 oh         1 A0R      -0.511100
     21 H1           4.8720     3.2000    -0.4620 h1         1 A0R       0.044700
     22 H2           5.7970     2.0050     0.4660 h1         1 A0R       0.044700
     23 H3           5.6280     1.8310    -1.2960 h1         1 A0R       0.044700
     24 H4           6.0370    -0.1750    -0.2180 ha         1 A0R       0.138000
     25 H5           5.9140    -2.5910     0.0840 ha         1 A0R       0.132000
     26 H6           3.7280    -3.7110     0.4420 ha         1 A0R       0.137000
     27 H7           1.6780    -2.3730     0.5030 ha         1 A0R       0.133000
     28 H8           1.5730     1.3870     0.2460 ha         1 A0R       0.159000
     29 H10          0.0020    -1.2150     0.0280 ha         1 A0R       0.131000
     30 H12         -1.8300    -1.8490    -0.1230 ha         1 A0R       0.128000
     31 H13         -4.1020    -2.6370    -0.3180 ha         1 A0R       0.135000
     32 H14         -6.3120    -2.0020    -0.3620 ho         1 A0R       0.432000
     33 H15         -5.5380     1.4050    -0.0100 ha         1 A0R       0.166000
     34 H16         -2.2450     2.6030     0.2850 ho         1 A0R       0.485000
@<TRIPOS>BOND
     1     1     2 1   
     2     1    21 1   
     3     1    22 1   
     4     1    23 1   
     5     2     3 1   
     6     3     4 ar  
     7     3     8 ar  
     8     4     5 ar  
     9     4    24 1   
    10     5     6 ar  
    11     5    25 1   
    12     6     7 ar  
    13     6    26 1   
    14     7     8 ar  
    15     7    27 1   
    16     8     9 1   
    17     9    10 2   
    18     9    28 1   
    19    10    11 1   
    20    10    29 1   
    21    11    12 2   
    22    11    13 1   
    23    13    14 ar  
    24    13    19 ar  
    25    14    15 ar  
    26    14    30 1   
    27    15    16 ar  
    28    15    31 1   
    29    16    17 1   
    30    16    18 ar  
    31    17    32 1   
    32    18    19 ar  
    33    18    33 1   
    34    19    20 1   
    35    20    34 1   
@<TRIPOS>SUBSTRUCTURE
     1 A0R         1 TEMP              0 ****  ****    0 ROOT
