@<TRIPOS>MOLECULE
A0R
   34    35     1     0     0
SMALL
No Charge or Current Charge


@<TRIPOS>ATOM
      1 CAT          5.2430     2.2300    -0.1820 c3         1 A0R       0.148900
      2 OAS          4.0120     1.5020    -0.0250 os         1 A0R      -0.339100
      3 CAN          3.9620     0.1190    -0.0080 ca         1 A0R       0.172100
      4 CAL          5.1300    -0.6650    -0.1480 ca         1 A0R      -0.208000
      5 CAM          5.0500    -2.0660    -0.1320 ca         1 A0R      -0.051000
      6 CAO          3.8060    -2.6920     0.0250 ca         1 A0R      -0.156000
      7 CAP          2.6400    -1.9230     0.1640 ca         1 A0R      -0.051000
      8 CAK          2.7030    -0.5120     0.1470 ca         1 A0R      -0.120800
      9 CAI          1.4560     0.3010     0.3000 ce         1 A0R      -0.042200
     10 CAH          0.1580    -0.0920     0.1230 cf         1 A0R      -0.325200
     11 CAG         -1.0140     0.8130     0.2890 c          1 A0R       0.614900
     12 OAJ         -0.8400     2.0000     0.5420 o          1 A0R      -0.599100
     13 CAA         -2.4180     0.2860     0.1280 ca         1 A0R      -0.329600
     14 CAB         -2.7080    -1.0830     0.3300 ca         1 A0R       0.025000
     15 CAD         -4.0170    -1.5620     0.1640 ca         1 A0R      -0.276000
     16 CAF         -5.0470    -0.6870    -0.1960 ca         1 A0R       0.215100
     17 OAR         -6.3140    -1.1530    -0.3570 oh         1 A0R      -0.523100
     18 CAE         -4.7770     0.6700    -0.3800 ca         1 A0R      -0.231000
     19 CAC         -3.4760     1.1550    -0.2120 ca         1 A0R       0.261100
     20 OAQ         -3.2520     2.4840    -0.3790 oh         1 A0R      -0.550100
     21 H1           5.0490     3.3100    -0.1670 h1         1 A0R       0.044700
     22 H2           5.9400     1.9990     0.6330 h1         1 A0R       0.044700
     23 H3           5.7230     1.9850    -1.1380 h1         1 A0R       0.044700
     24 H4           6.1070    -0.2070    -0.2700 ha         1 A0R       0.120000
     25 H5           5.9510    -2.6650    -0.2400 ha         1 A0R       0.114000
     26 H6           3.7440    -3.7780     0.0410 ha         1 A0R       0.119000
     27 H7           1.6900    -2.4330     0.2970 ha         1 A0R       0.115000
     28 H8           1.6320     1.3420     0.5850 ha         1 A0R       0.209000
     29 H10         -0.0460    -1.1110    -0.1870 ha         1 A0R       0.181000
     30 H12         -1.9350    -1.7850     0.6330 ha         1 A0R       0.110000
     31 H13         -4.2220    -2.6180     0.3230 ha         1 A0R       0.117000
     32 H14         -6.3040    -2.1170    -0.1840 ho         1 A0R       0.471000
     33 H15         -5.5790     1.3500    -0.6480 ha         1 A0R       0.148000
     34 H16         -2.3220     2.6320    -0.0690 ho         1 A0R       0.524000
@<TRIPOS>BOND
     1     1     2 1   
     2     1    21 1   
     3     1    22 1   
     4     1    23 1   
     5     2     3 1   
     6     3     4 ar  
     7     3     8 ar  
     8     4     5 ar  
     9     4    24 1   
    10     5     6 ar  
    11     5    25 1   
    12     6     7 ar  
    13     6    26 1   
    14     7     8 ar  
    15     7    27 1   
    16     8     9 1   
    17     9    10 2   
    18     9    28 1   
    19    10    11 1   
    20    10    29 1   
    21    11    12 2   
    22    11    13 1   
    23    13    14 ar  
    24    13    19 ar  
    25    14    15 ar  
    26    14    30 1   
    27    15    16 ar  
    28    15    31 1   
    29    16    17 1   
    30    16    18 ar  
    31    17    32 1   
    32    18    19 ar  
    33    18    33 1   
    34    19    20 1   
    35    20    34 1   
@<TRIPOS>SUBSTRUCTURE
     1 A0R         1 TEMP              0 ****  ****    0 ROOT
