@<TRIPOS>MOLECULE
A0S
   44    47     1     0     0
SMALL
No Charge or Current Charge


@<TRIPOS>ATOM
      1 C4           1.3220     0.7740    -2.1060 ca         1 A0S       0.017000
      2 C5           2.9970     1.9990    -0.5470 c          1 A0S       0.557000
      3 C6           2.1580     2.0700     0.7470 c3         1 A0S       0.011000
      4 N1           0.8470     1.3640     0.7940 n          1 A0S      -0.397800
      5 C7          -0.2300     1.9460     1.5290 c          1 A0S       0.547600
      6 C8          -1.6240     1.4170     1.3530 cc         1 A0S       0.065500
      7 C9          -2.7210     1.8540     2.0550 cd         1 A0S      -0.106000
      8 C10         -3.8460     1.1700     1.5470 cd         1 A0S      -0.155000
      9 C11         -3.3900     0.3590     0.5480 cc         1 A0S       0.175200
     10 C12          0.8380    -0.0270     0.2920 c3         1 A0S       0.225300
     11 C13          2.0670    -0.8440     0.7280 ca         1 A0S      -0.128300
     12 C14          2.3220    -0.9920     2.1100 ca         1 A0S      -0.067000
     13 C15          3.4310    -1.7300     2.5590 ca         1 A0S      -0.154500
     14 C16          4.2900    -2.3330     1.6310 ca         1 A0S       0.182000
     15 C17          4.0450    -2.2070     0.2570 ca         1 A0S      -0.154500
     16 C18          2.9370    -1.4700    -0.1970 ca         1 A0S      -0.067000
     17 C19          0.5860    -0.0390    -1.2090 ca         1 A0S      -0.140300
     18 C3           1.0140     0.7260    -3.4790 ca         1 A0S      -0.167000
     19 C2          -0.0080    -0.1030    -3.9660 ca         1 A0S      -0.068000
     20 C20         -0.4230    -0.8890    -1.7130 ca         1 A0S      -0.066000
     21 C1          -0.7290    -0.9210    -3.0830 ca         1 A0S      -0.100300
     22 C           -1.8360    -1.8250    -3.6040 c3         1 A0S      -0.041800
     23 O            4.1570     2.3920    -0.5360 o          1 A0S      -0.538000
     24 N            2.4330     1.5860    -1.7480 ns         1 A0S      -0.149000
     25 O1          -0.0110     2.8910     2.2790 o          1 A0S      -0.568100
     26 O2          -2.0320     0.4990     0.4060 os         1 A0S      -0.204000
     27 Br          -4.3510    -0.8190    -0.5640 br         1 A0S      -0.084200
     28 H1           2.7910     1.7030     1.5640 h1         1 A0S       0.099200
     29 H2           1.9980     3.1410     0.9160 h1         1 A0S       0.099200
     30 H3          -2.7180     2.5950     2.8490 ha         1 A0S       0.162000
     31 H4          -4.8760     1.2720     1.8720 ha         1 A0S       0.158000
     32 H5           0.0110    -0.5560     0.7780 h1         1 A0S       0.081700
     33 H6           1.6590    -0.5290     2.8390 ha         1 A0S       0.125500
     34 H7           3.6240    -1.8350     3.6230 ha         1 A0S       0.136000
     35 H8           4.7130    -2.6840    -0.4570 ha         1 A0S       0.136000
     36 H9           2.7680    -1.3980    -1.2680 ha         1 A0S       0.125500
     37 H10          1.5780     1.3350    -4.1820 ha         1 A0S       0.117000
     38 H11         -0.2310    -0.1170    -5.0310 ha         1 A0S       0.117000
     39 H12         -0.9830    -1.5270    -1.0320 ha         1 A0S       0.116000
     40 H13         -1.6030    -2.2050    -4.6060 hc         1 A0S       0.043033
     41 H14         -1.9860    -2.6940    -2.9510 hc         1 A0S       0.043033
     42 H15         -2.7870    -1.2830    -3.6630 hc         1 A0S       0.043033
     43 H16          3.0340     1.7770    -2.5400 hn         1 A0S       0.149000
     44 F            5.3560    -3.0430     2.0620 f          1 A0S      -0.175000
@<TRIPOS>BOND
     1     1    17 ar  
     2     1    18 ar  
     3     1    24 1   
     4     2     3 1   
     5     2    23 2   
     6     2    24 1   
     7     3     4 1   
     8     3    28 1   
     9     3    29 1   
    10     4     5 1   
    11     4    10 1   
    12     5     6 1   
    13     5    25 2   
    14     6     7 2   
    15     6    26 1   
    16     7     8 1   
    17     7    30 1   
    18     8     9 2   
    19     8    31 1   
    20     9    26 1   
    21     9    27 1   
    22    10    11 1   
    23    10    17 1   
    24    10    32 1   
    25    11    12 ar  
    26    11    16 ar  
    27    12    13 ar  
    28    12    33 1   
    29    13    14 ar  
    30    13    34 1   
    31    14    15 ar  
    32    14    44 1   
    33    15    16 ar  
    34    15    35 1   
    35    16    36 1   
    36    17    20 ar  
    37    18    19 ar  
    38    18    37 1   
    39    19    21 ar  
    40    19    38 1   
    41    20    21 ar  
    42    20    39 1   
    43    21    22 1   
    44    22    40 1   
    45    22    41 1   
    46    22    42 1   
    47    24    43 1   
@<TRIPOS>SUBSTRUCTURE
     1 A0S         1 TEMP              0 ****  ****    0 ROOT
