@<TRIPOS>MOLECULE
A0S
   44    47     1     0     0
SMALL
bcc


@<TRIPOS>ATOM
      1 C4           1.0800     0.9670    -2.0470 ca         1 A0S       0.109600
      2 C5           2.5220     2.5430    -0.6190 c          1 A0S       0.699500
      3 C6           2.2840     1.8980     0.7230 c3         1 A0S       0.011000
      4 N1           0.9800     1.2990     0.8600 n          1 A0S      -0.464800
      5 C7          -0.0130     2.0700     1.3820 c          1 A0S       0.614600
      6 C8          -1.4210     1.6380     1.3300 cc         1 A0S       0.175200
      7 C9          -2.4510     2.0530     2.1160 cd         1 A0S      -0.189300
      8 C10         -3.6230     1.4190     1.6240 cd         1 A0S      -0.238300
      9 C11         -3.2070     0.6820     0.5650 cc         1 A0S       0.284900
     10 C12          0.8100    -0.0380     0.3060 c3         1 A0S       0.225300
     11 C13          1.9560    -0.9420     0.7290 ca         1 A0S      -0.128300
     12 C14          2.0710    -1.2750     2.0770 ca         1 A0S      -0.085000
     13 C15          3.0920    -2.0940     2.5280 ca         1 A0S      -0.172500
     14 C16          4.0010    -2.5810     1.6060 ca         1 A0S       0.146900
     15 C17          3.9170    -2.2760     0.2630 ca         1 A0S      -0.172500
     16 C18          2.8860    -1.4510    -0.1690 ca         1 A0S      -0.085000
     17 C19          0.5780    -0.0090    -1.1820 ca         1 A0S      -0.140300
     18 C3           0.7650     0.8620    -3.4070 ca         1 A0S      -0.185000
     19 C2          -0.0140    -0.1650    -3.8990 ca         1 A0S      -0.086000
     20 C20         -0.2060    -1.0330    -1.7050 ca         1 A0S      -0.084000
     21 C1          -0.5180    -1.1460    -3.0500 ca         1 A0S      -0.100300
     22 C           -1.3600    -2.2780    -3.5610 c3         1 A0S      -0.041800
     23 O            3.2960     3.4800    -0.7160 o          1 A0S      -0.613500
     24 N            1.8840     2.0730    -1.7230 ns         1 A0S      -0.475100
     25 O1           0.2160     3.1400     1.9240 o          1 A0S      -0.568100
     26 O2          -1.8930     0.8010     0.3720 os         1 A0S      -0.292800
     27 BR          -4.1260    -0.4050    -0.6040 br         1 A0S      -0.084200
     28 H1           3.0600     1.1470     0.8800 h1         1 A0S       0.099200
     29 H2           2.4360     2.6550     1.4870 h1         1 A0S       0.099200
     30 H3          -2.3860     2.7280     2.9530 ha         1 A0S       0.180000
     31 H4          -4.6280     1.5040     2.0000 ha         1 A0S       0.176000
     32 H5          -0.0740    -0.4760     0.7660 h1         1 A0S       0.081700
     33 H6           1.3540    -0.8880     2.7910 ha         1 A0S       0.143500
     34 H7           3.1770    -2.3530     3.5750 ha         1 A0S       0.154000
     35 H8           4.6400    -2.6720    -0.4380 ha         1 A0S       0.154000
     36 H9           2.8170    -1.2120    -1.2220 ha         1 A0S       0.143500
     37 H10          1.1400     1.6110    -4.0950 ha         1 A0S       0.135000
     38 H11         -0.2370    -0.1950    -4.9590 ha         1 A0S       0.135000
     39 H12         -0.6010    -1.7710    -1.0130 ha         1 A0S       0.134000
     40 H13         -0.7790    -3.2000    -3.6350 hc         1 A0S       0.043033
     41 H14         -2.2010    -2.4810    -2.8980 hc         1 A0S       0.043033
     42 H15         -1.7580    -2.0630    -4.5510 hc         1 A0S       0.043033
     43 H16          2.1360     2.6170    -2.5390 hn         1 A0S       0.315500
     44 F            4.9900    -3.3810     2.0320 f          1 A0S      -0.139900
@<TRIPOS>BOND
     1     1    17 ar  
     2     1    18 ar  
     3     1    24 1   
     4     2     3 1   
     5     2    23 2   
     6     2    24 1   
     7     3     4 1   
     8     3    28 1   
     9     3    29 1   
    10     4     5 1   
    11     4    10 1   
    12     5     6 1   
    13     5    25 2   
    14     6     7 2   
    15     6    26 1   
    16     7     8 1   
    17     7    30 1   
    18     8     9 2   
    19     8    31 1   
    20     9    26 1   
    21     9    27 1   
    22    10    11 1   
    23    10    17 1   
    24    10    32 1   
    25    11    12 ar  
    26    11    16 ar  
    27    12    13 ar  
    28    12    33 1   
    29    13    14 ar  
    30    13    34 1   
    31    14    15 ar  
    32    14    44 1   
    33    15    16 ar  
    34    15    35 1   
    35    16    36 1   
    36    17    20 ar  
    37    18    19 ar  
    38    18    37 1   
    39    19    21 ar  
    40    19    38 1   
    41    20    21 ar  
    42    20    39 1   
    43    21    22 1   
    44    22    40 1   
    45    22    41 1   
    46    22    42 1   
    47    24    43 1   
@<TRIPOS>SUBSTRUCTURE
     1 A0S         1 TEMP              0 ****  ****    0 ROOT
