@<TRIPOS>MOLECULE
A0T
   52    54     1     0     0
SMALL
bcc


@<TRIPOS>ATOM
      1 C01          6.7190     3.0500    -0.8700 c3         1 A0T      -0.116100
      2 C02          5.3530     2.5310    -0.4640 c3         1 A0T       0.230800
      3 N03          5.4280     1.1060    -0.1920 nu         1 A0T      -0.860900
      4 C04          4.3570     0.3430     0.0380 ca         1 A0T       0.803200
      5 C05          4.4320    -1.0600     0.2950 ca         1 A0T      -0.573900
      6 C06          3.2320    -1.7010     0.4950 ca         1 A0T       0.557200
      7 N07          2.0500    -1.0970     0.4630 nb         1 A0T      -0.800000
      8 C08          2.0840     0.2080     0.2200 ca         1 A0T       0.972900
      9 N09          3.1730     0.9420     0.0110 nb         1 A0T      -0.868000
     10 N10          0.9260     0.9200     0.1720 nu         1 A0T      -0.720300
     11 C11         -0.3920     0.5340     0.3390 ca         1 A0T       0.196600
     12 C12         -0.8260    -0.7670     0.5570 ca         1 A0T      -0.182000
     13 C13         -2.1770    -1.0170     0.7100 ca         1 A0T       0.174900
     14 C14         -3.1330    -0.0320     0.6360 ca         1 A0T      -0.187600
     15 C15         -2.6990     1.2770     0.4110 ca         1 A0T      -0.143000
     16 C16         -1.3570     1.5690     0.2680 ca         1 A0T       0.065100
     17 O17         -0.8620     2.8040     0.0550 os         1 A0T      -0.336900
     18 C18         -1.7630     3.8910    -0.0410 c3         1 A0T       0.130700
     19 C19         -4.5750    -0.3230     0.9070 c          1 A0T       0.698700
     20 O20         -4.9170    -0.7250     2.0100 o          1 A0T      -0.579100
     21 N21         -5.4410    -0.0660    -0.0920 n          1 A0T      -0.477800
     22 C22         -6.8760    -0.1890     0.1060 c6         1 A0T       0.061500
     23 C23         -7.4390    -1.2450    -0.8290 c6         1 A0T       0.108400
     24 O24         -7.1130    -0.9660    -2.1730 os         1 A0T      -0.398600
     25 C25         -5.7180    -0.8990    -2.3580 c6         1 A0T       0.108400
     26 C26         -5.0820     0.1690    -1.4810 c6         1 A0T       0.061500
     27 C28          5.7170    -1.8000     0.3250 c3         1 A0T       0.745200
     28 F27         -2.5640    -2.2880     0.9100 f          1 A0T      -0.128900
     29 F29          6.3860    -1.7080    -0.8390 f          1 A0T      -0.239633
     30 F30          6.5570    -1.3300     1.2660 f          1 A0T      -0.239633
     31 F31          5.5500    -3.1010     0.5720 f          1 A0T      -0.239633
     32 H1           7.4530     2.9090    -0.0750 hc         1 A0T       0.046700
     33 H2           7.0820     2.5460    -1.7660 hc         1 A0T       0.046700
     34 H3           6.6620     4.1160    -1.0830 hc         1 A0T       0.046700
     35 H4           4.9900     3.0670     0.4170 h1         1 A0T       0.057200
     36 H5           4.6300     2.7080    -1.2620 h1         1 A0T       0.057200
     37 H6           6.3520     0.7200    -0.0990 hn         1 A0T       0.453800
     38 H7           3.2040    -2.7660     0.6910 h4         1 A0T       0.037100
     39 H8           1.0710     1.9030    -0.0040 hn         1 A0T       0.474800
     40 H9          -0.1170    -1.5780     0.6070 ha         1 A0T       0.195000
     41 H10         -3.4390     2.0640     0.3590 ha         1 A0T       0.146000
     42 H11         -2.4660     3.7600    -0.8670 h1         1 A0T       0.044367
     43 H12         -2.3240     4.0320     0.8860 h1         1 A0T       0.044367
     44 H13         -1.1600     4.7750    -0.2260 h1         1 A0T       0.044367
     45 H14         -7.0900    -0.4470     1.1390 h1         1 A0T       0.063950
     46 H15         -7.3390     0.7800    -0.1070 h1         1 A0T       0.063950
     47 H16         -7.0590    -2.2340    -0.5340 h1         1 A0T       0.056200
     48 H17         -8.5270    -1.2660    -0.7530 h1         1 A0T       0.056200
     49 H18         -5.2520    -1.8690    -2.1360 h1         1 A0T       0.056200
     50 H19         -5.5350    -0.6680    -3.4080 h1         1 A0T       0.056200
     51 H20         -5.4300     1.1620    -1.7820 h1         1 A0T       0.063950
     52 H21         -4.0030     0.1420    -1.6120 h1         1 A0T       0.063950
@<TRIPOS>BOND
     1     1     2 1   
     2     1    32 1   
     3     1    33 1   
     4     1    34 1   
     5     2     3 1   
     6     2    35 1   
     7     2    36 1   
     8     3     4 1   
     9     3    37 1   
    10     4     5 ar  
    11     4     9 ar  
    12     5     6 ar  
    13     5    27 1   
    14     6     7 ar  
    15     6    38 1   
    16     7     8 ar  
    17     8     9 ar  
    18     8    10 1   
    19    10    11 1   
    20    10    39 1   
    21    11    12 ar  
    22    11    16 ar  
    23    12    13 ar  
    24    12    40 1   
    25    13    14 ar  
    26    13    28 1   
    27    14    15 ar  
    28    14    19 1   
    29    15    16 ar  
    30    15    41 1   
    31    16    17 1   
    32    17    18 1   
    33    18    42 1   
    34    18    43 1   
    35    18    44 1   
    36    19    20 2   
    37    19    21 1   
    38    21    22 1   
    39    21    26 1   
    40    22    23 1   
    41    22    45 1   
    42    22    46 1   
    43    23    24 1   
    44    23    47 1   
    45    23    48 1   
    46    24    25 1   
    47    25    26 1   
    48    25    49 1   
    49    25    50 1   
    50    26    51 1   
    51    26    52 1   
    52    27    29 1   
    53    27    30 1   
    54    27    31 1   
@<TRIPOS>SUBSTRUCTURE
     1 A0T         1 TEMP              0 ****  ****    0 ROOT
