@<TRIPOS>MOLECULE
A0T
   52    54     1     0     0
SMALL
No Charge or Current Charge


@<TRIPOS>ATOM
      1 C01          7.0140     3.1290    -0.1750 c3         1 A0T      -0.116100
      2 C02          5.5640     2.6380    -0.0500 c3         1 A0T       0.230800
      3 N03          5.5240     1.1690    -0.0900 nu         1 A0T      -0.916100
      4 C04          4.4100     0.3530    -0.0060 ca         1 A0T       0.474900
      5 C05          4.5210    -1.0430    -0.0570 ca         1 A0T      -0.443300
      6 C06          3.3180    -1.7680     0.0310 ca         1 A0T       0.228900
      7 N07          2.1300    -1.1550     0.1610 nb         1 A0T      -0.274000
      8 C08          2.1520     0.1840     0.2100 ca         1 A0T       0.446900
      9 N09          3.2270     0.9700     0.1230 nb         1 A0T      -0.342000
     10 N10          0.9580     0.8750     0.3100 nu         1 A0T      -0.913900
     11 C11         -0.3960     0.5360     0.4720 ca         1 A0T       0.335000
     12 C12         -0.7990    -0.6810     1.0460 ca         1 A0T      -0.164000
     13 C13         -2.1580    -0.9810     1.2010 ca         1 A0T       0.210000
     14 C14         -3.1510    -0.0730     0.7850 ca         1 A0T      -0.187600
     15 C15         -2.7520     1.1690     0.2380 ca         1 A0T      -0.125000
     16 C16         -1.3810     1.4790     0.0810 ca         1 A0T       0.065100
     17 O17         -0.9630     2.6940    -0.4490 os         1 A0T      -0.360100
     18 C18         -1.8870     3.7080    -0.8890 c3         1 A0T       0.153900
     19 C19         -4.6140    -0.3990     0.9780 c          1 A0T       0.631700
     20 O20         -5.0110    -0.9320     2.0060 o          1 A0T      -0.579100
     21 N21         -5.5300     0.0510    -0.0040 n          1 A0T      -0.410800
     22 C22         -7.0060    -0.0010     0.2260 c6         1 A0T       0.061500
     23 C23         -7.6820    -1.1060    -0.6260 c6         1 A0T       0.131600
     24 O24         -7.3430    -0.9270    -2.0190 os         1 A0T      -0.445000
     25 C25         -5.9210    -0.9940    -2.2680 c6         1 A0T       0.131600
     26 C26         -5.1780     0.1020    -1.4580 c6         1 A0T       0.061500
     27 C28          5.8580    -1.7630    -0.2050 c3         1 A0T       0.381300
     28 F27         -2.4940    -2.1780     1.7300 f          1 A0T      -0.164000
     29 F29          6.4880    -1.4160    -1.3490 f          1 A0T      -0.118333
     30 F30          6.6960    -1.4720     0.8150 f          1 A0T      -0.118333
     31 F31          5.7300    -3.1090    -0.2270 f          1 A0T      -0.118333
     32 H1           7.6270     2.7470     0.6500 hc         1 A0T       0.046700
     33 H2           7.4560     2.8010    -1.1230 hc         1 A0T       0.046700
     34 H3           7.0440     4.2240    -0.1440 hc         1 A0T       0.046700
     35 H4           5.1390     3.0040     0.8960 h1         1 A0T       0.057200
     36 H5           4.9680     3.0580    -0.8730 h1         1 A0T       0.057200
     37 H6           6.4110     0.6810    -0.1880 hn         1 A0T       0.509000
     38 H7           3.2910    -2.8570    -0.0030 h4         1 A0T       0.037100
     39 H8           1.0740     1.8640     0.0890 hn         1 A0T       0.530000
     40 H9          -0.0680    -1.4010     1.3910 ha         1 A0T       0.177000
     41 H10         -3.5160     1.8890    -0.0410 ha         1 A0T       0.128000
     42 H11         -2.5320     3.3260    -1.6910 h1         1 A0T       0.044367
     43 H12         -2.5190     4.0470    -0.0590 h1         1 A0T       0.044367
     44 H13         -1.3410     4.5770    -1.2770 h1         1 A0T       0.044367
     45 H14         -7.2360    -0.1670     1.2870 h1         1 A0T       0.063950
     46 H15         -7.4400     0.9720    -0.0440 h1         1 A0T       0.063950
     47 H16         -7.3470    -2.0990    -0.2920 h1         1 A0T       0.056200
     48 H17         -8.7740    -1.0540    -0.5110 h1         1 A0T       0.056200
     49 H18         -5.5500    -1.9890    -1.9820 h1         1 A0T       0.056200
     50 H19         -5.7360    -0.8570    -3.3430 h1         1 A0T       0.056200
     51 H20         -5.4420     1.0910    -1.8570 h1         1 A0T       0.063950
     52 H21         -4.0990    -0.0350    -1.6120 h1         1 A0T       0.063950
@<TRIPOS>BOND
     1     1     2 1   
     2     1    32 1   
     3     1    33 1   
     4     1    34 1   
     5     2     3 1   
     6     2    35 1   
     7     2    36 1   
     8     3     4 1   
     9     3    37 1   
    10     4     5 ar  
    11     4     9 ar  
    12     5     6 ar  
    13     5    27 1   
    14     6     7 ar  
    15     6    38 1   
    16     7     8 ar  
    17     8     9 ar  
    18     8    10 1   
    19    10    11 1   
    20    10    39 1   
    21    11    12 ar  
    22    11    16 ar  
    23    12    13 ar  
    24    12    40 1   
    25    13    14 ar  
    26    13    28 1   
    27    14    15 ar  
    28    14    19 1   
    29    15    16 ar  
    30    15    41 1   
    31    16    17 1   
    32    17    18 1   
    33    18    42 1   
    34    18    43 1   
    35    18    44 1   
    36    19    20 2   
    37    19    21 1   
    38    21    22 1   
    39    21    26 1   
    40    22    23 1   
    41    22    45 1   
    42    22    46 1   
    43    23    24 1   
    44    23    47 1   
    45    23    48 1   
    46    24    25 1   
    47    25    26 1   
    48    25    49 1   
    49    25    50 1   
    50    26    51 1   
    51    26    52 1   
    52    27    29 1   
    53    27    30 1   
    54    27    31 1   
@<TRIPOS>SUBSTRUCTURE
     1 A0T         1 TEMP              0 ****  ****    0 ROOT
