@<TRIPOS>MOLECULE
A0U
   47    47     1     0     0
SMALL
No Charge or Current Charge


@<TRIPOS>ATOM
      1 C4          -1.7980    27.2070    -6.4700 ca         1 A0U      -0.098500
      2 C14          4.3330    35.6570    -6.8710 c3         1 A0U      -0.110433
      3 C5          -3.0370    27.6080    -7.0000 ca         1 A0U      -0.112500
      4 C6          -3.1120    28.1190    -8.3060 ca         1 A0U      -0.106000
      5 C11          5.7720    29.4630    -7.1790 c2         1 A0U       0.655100
      6 C7          -1.9470    28.2280    -9.0830 ca         1 A0U      -0.112500
      7 C8          -0.7080    27.8270    -8.5540 ca         1 A0U      -0.098500
      8 C9           2.5620    28.5890    -6.9650 c          1 A0U       0.573100
      9 C10          3.3560    29.7960    -6.3780 c3         1 A0U       0.118800
     10 C12          5.0200    32.7240    -7.2580 c          1 A0U       0.644100
     11 C13          5.2220    35.0730    -7.9990 c3         1 A0U       0.225000
     12 N1           1.5270    28.0250    -6.1760 n          1 A0U      -0.400800
     13 N2           4.5960    30.2040    -7.1010 nh         1 A0U      -0.503600
     14 C3          -0.6260    27.3140    -7.2440 ca         1 A0U      -0.113300
     15 N3           5.9180    28.4010    -6.4750 n2         1 A0U      -0.845100
     16 C1           1.1520    28.5930    -4.8600 c3         1 A0U       0.085300
     17 C2           0.7190    26.8850    -6.6710 c3         1 A0U       0.137300
     18 O1           2.8090    28.1370    -8.0810 o          1 A0U      -0.612100
     19 N4           4.6060    31.5160    -7.7820 ns         1 A0U      -0.326300
     20 O2           5.4440    32.8760    -6.1220 o          1 A0U      -0.512000
     21 O3           4.8760    33.6860    -8.2230 os         1 A0U      -0.478100
     22 C15          4.8950    35.7680    -9.3390 c3         1 A0U      -0.110433
     23 C16          6.7390    35.1900    -7.6990 c3         1 A0U      -0.110433
     24 H1          -1.7510    26.8140    -5.4560 ha         1 A0U       0.114000
     25 H2           4.6250    35.2840    -5.8840 hc         1 A0U       0.051256
     26 H3           4.4210    36.7490    -6.8430 hc         1 A0U       0.051256
     27 H4           3.2790    35.4060    -7.0380 hc         1 A0U       0.051256
     28 H5          -3.9390    27.5230    -6.3970 ha         1 A0U       0.113000
     29 H6          -4.0710    28.4290    -8.7160 ha         1 A0U       0.113000
     30 H7           6.5480    29.8680    -7.8330 h5         1 A0U      -0.006200
     31 H8          -2.0030    28.6240   -10.0950 ha         1 A0U       0.113000
     32 H9           0.1900    27.9160    -9.1620 ha         1 A0U       0.114000
     33 H10          3.6150    29.5470    -5.3420 h1         1 A0U       0.094700
     34 H11          2.6520    30.6360    -6.3380 h1         1 A0U       0.094700
     35 H12          6.8570    28.0250    -6.6680 hn         1 A0U       0.395400
     36 H13          1.9810    28.4720    -4.1510 h1         1 A0U       0.043033
     37 H14          0.9130    29.6590    -4.9660 h1         1 A0U       0.043033
     38 H15          0.2710    28.0780    -4.4570 h1         1 A0U       0.043033
     39 H16          0.5540    26.1850    -5.8420 h1         1 A0U       0.071200
     40 H17          1.2770    26.3280    -7.4360 h1         1 A0U       0.071200
     41 H18          4.2850    31.5230    -8.7460 hn         1 A0U       0.334500
     42 H19          5.1210    36.8400    -9.2890 hc         1 A0U       0.051256
     43 H20          5.4850    35.3350   -10.1570 hc         1 A0U       0.051256
     44 H21          3.8330    35.6560    -9.5880 hc         1 A0U       0.051256
     45 H22          6.9880    34.8260    -6.6970 hc         1 A0U       0.051256
     46 H23          7.3250    34.6210    -8.4300 hc         1 A0U       0.051256
     47 H24          7.0580    36.2380    -7.7520 hc         1 A0U       0.051256
@<TRIPOS>BOND
     1     1     3 ar  
     2     1    14 ar  
     3     1    24 1   
     4     2    11 1   
     5     2    25 1   
     6     2    26 1   
     7     2    27 1   
     8     3     4 ar  
     9     3    28 1   
    10     4     6 ar  
    11     4    29 1   
    12     5    13 1   
    13     5    15 2   
    14     5    30 1   
    15     6     7 ar  
    16     6    31 1   
    17     7    14 ar  
    18     7    32 1   
    19     8     9 1   
    20     8    12 1   
    21     8    18 2   
    22     9    13 1   
    23     9    33 1   
    24     9    34 1   
    25    10    19 1   
    26    10    20 2   
    27    10    21 1   
    28    11    21 1   
    29    11    22 1   
    30    11    23 1   
    31    12    16 1   
    32    12    17 1   
    33    13    19 1   
    34    14    17 1   
    35    15    35 1   
    36    16    36 1   
    37    16    37 1   
    38    16    38 1   
    39    17    39 1   
    40    17    40 1   
    41    19    41 1   
    42    22    42 1   
    43    22    43 1   
    44    22    44 1   
    45    23    45 1   
    46    23    46 1   
    47    23    47 1   
@<TRIPOS>SUBSTRUCTURE
     1 A0U         1 TEMP              0 ****  ****    0 ROOT
