@<TRIPOS>MOLECULE
A0U
   47    47     1     0     0
SMALL
abcg2


@<TRIPOS>ATOM
      1 C4          -1.2990    28.8460    -7.1170 ca         1 A0U      -0.098500
      2 C14          2.6700    33.9430    -7.1520 c3         1 A0U      -0.110433
      3 C5          -2.1080    29.9030    -7.5220 ca         1 A0U      -0.112500
      4 C6          -1.5630    30.9620    -8.2330 ca         1 A0U      -0.106000
      5 C11          6.4900    28.8860    -6.7560 c2         1 A0U       0.655100
      6 C7          -0.2070    30.9570    -8.5390 ca         1 A0U      -0.112500
      7 C8           0.5960    29.9000    -8.1380 ca         1 A0U      -0.098500
      8 C9           3.2470    28.3400    -6.6460 c          1 A0U       0.573100
      9 C10          4.2460    29.1190    -5.7920 c3         1 A0U       0.118800
     10 C12          4.7850    31.7950    -7.2470 c          1 A0U       0.644100
     11 C13          3.7480    33.7850    -8.2160 c3         1 A0U       0.225000
     12 N1           2.0210    28.1500    -6.1210 n          1 A0U      -0.400800
     13 N2           5.3340    29.6020    -6.5980 nh         1 A0U      -0.503600
     14 C3           0.0570    28.8310    -7.4220 ca         1 A0U      -0.113300
     15 N3           6.7510    27.8520    -6.0720 n2         1 A0U      -0.845100
     16 C1           1.6390    28.6480    -4.8130 c3         1 A0U       0.085300
     17 C2           0.9350    27.6880    -6.9690 c3         1 A0U       0.137300
     18 O1           3.5670    27.9560    -7.7620 o          1 A0U      -0.612100
     19 N4           5.0160    30.4860    -7.5910 ns         1 A0U      -0.326300
     20 O2           5.0870    32.2740    -6.1810 o          1 A0U      -0.512000
     21 O3           4.2100    32.4050    -8.2710 os         1 A0U      -0.478100
     22 C15          3.1450    33.9980    -9.5980 c3         1 A0U      -0.110433
     23 C16          4.9130    34.7430    -7.9980 c3         1 A0U      -0.110433
     24 H1          -1.7300    28.0260    -6.5540 ha         1 A0U       0.114000
     25 H2           3.0570    33.8240    -6.1420 hc         1 A0U       0.051256
     26 H3           2.2420    34.9440    -7.2260 hc         1 A0U       0.051256
     27 H4           1.8620    33.2260    -7.3070 hc         1 A0U       0.051256
     28 H5          -3.1620    29.8990    -7.2740 ha         1 A0U       0.113000
     29 H6          -2.1890    31.7880    -8.5450 ha         1 A0U       0.113000
     30 H7           7.1440    29.3350    -7.5050 h5         1 A0U      -0.006200
     31 H8           0.2280    31.7790    -9.0950 ha         1 A0U       0.113000
     32 H9           1.6490    29.9120    -8.3930 ha         1 A0U       0.114000
     33 H10          4.6480    28.4850    -5.0000 h1         1 A0U       0.094700
     34 H11          3.7650    29.9690    -5.3060 h1         1 A0U       0.094700
     35 H12          7.6730    27.5080    -6.3090 hn         1 A0U       0.395400
     36 H13          2.4400    28.5180    -4.0900 h1         1 A0U       0.043033
     37 H14          1.3490    29.7010    -4.8360 h1         1 A0U       0.043033
     38 H15          0.7880    28.0710    -4.4550 h1         1 A0U       0.043033
     39 H16          0.3410    26.9600    -6.4130 h1         1 A0U       0.071200
     40 H17          1.3580    27.1660    -7.8260 h1         1 A0U       0.071200
     41 H18          4.5250    30.1050    -8.3900 hn         1 A0U       0.334500
     42 H19          2.7520    35.0120    -9.6760 hc         1 A0U       0.051256
     43 H20          3.8910    33.8650   -10.3830 hc         1 A0U       0.051256
     44 H21          2.3230    33.3040    -9.7810 hc         1 A0U       0.051256
     45 H22          5.3330    34.6670    -6.9980 hc         1 A0U       0.051256
     46 H23          5.7050    34.5660    -8.7270 hc         1 A0U       0.051256
     47 H24          4.5600    35.7660    -8.1350 hc         1 A0U       0.051256
@<TRIPOS>BOND
     1     1     3 ar  
     2     1    14 ar  
     3     1    24 1   
     4     2    11 1   
     5     2    25 1   
     6     2    26 1   
     7     2    27 1   
     8     3     4 ar  
     9     3    28 1   
    10     4     6 ar  
    11     4    29 1   
    12     5    13 1   
    13     5    15 2   
    14     5    30 1   
    15     6     7 ar  
    16     6    31 1   
    17     7    14 ar  
    18     7    32 1   
    19     8     9 1   
    20     8    12 1   
    21     8    18 2   
    22     9    13 1   
    23     9    33 1   
    24     9    34 1   
    25    10    19 1   
    26    10    20 2   
    27    10    21 1   
    28    11    21 1   
    29    11    22 1   
    30    11    23 1   
    31    12    16 1   
    32    12    17 1   
    33    13    19 1   
    34    14    17 1   
    35    15    35 1   
    36    16    36 1   
    37    16    37 1   
    38    16    38 1   
    39    17    39 1   
    40    17    40 1   
    41    19    41 1   
    42    22    42 1   
    43    22    43 1   
    44    22    44 1   
    45    23    45 1   
    46    23    46 1   
    47    23    47 1   
@<TRIPOS>SUBSTRUCTURE
     1 A0U         1 TEMP              0 ****  ****    0 ROOT
