@<TRIPOS>MOLECULE
A0W
   54    56     1     0     0
SMALL
abcg2


@<TRIPOS>ATOM
      1 O01          2.0360    -2.2150     0.0420 o          1 A0W      -0.590000
      2 C02          1.3150    -1.2370     0.0150 c          1 A0W       0.627000
      3 N03          1.8570     0.0420     0.0010 n          1 A0W      -0.360400
      4 C04          3.3340     0.1490     0.0120 c6         1 A0W       0.119200
      5 C05          3.9100     0.7830    -1.2520 c6         1 A0W      -0.084400
      6 C06          5.4330     0.6600    -1.2290 c6         1 A0W      -0.071400
      7 C07          6.0220     1.2760     0.0360 c6         1 A0W      -0.075900
      8 C08          5.4100     0.6620     1.2910 c6         1 A0W      -0.071400
      9 C09          3.8870     0.7830     1.2860 c6         1 A0W      -0.084400
     10 C10          1.0790     1.1750    -0.0170 c          1 A0W       0.622200
     11 O11          1.6300     2.2930    -0.0210 o          1 A0W      -0.604500
     12 C12         -0.3310     1.0220    -0.0290 cc         1 A0W      -0.582400
     13 C13         -1.1320     2.2130    -0.0470 c2         1 A0W       0.472100
     14 N14         -2.4390     2.2050    -0.0590 nu         1 A0W      -0.711200
     15 C15         -3.2800     3.3800    -0.0780 c3         1 A0W       0.036800
     16 C16         -4.7680     2.9710    -0.0840 c          1 A0W       0.715000
     17 O17         -5.0180     1.7520    -0.0810 o          1 A0W      -0.708500
     18 O18         -5.5710     3.9180    -0.0920 o          1 A0W      -0.708500
     19 O19         -0.5510     3.3790    -0.0510 oh         1 A0W      -0.587100
     20 C20         -0.9300    -0.2730    -0.0220 c          1 A0W       0.622200
     21 N21         -0.0600    -1.3590    -0.0020 n          1 A0W      -0.360400
     22 C22         -0.6120    -2.7330     0.0080 c6         1 A0W       0.119200
     23 C23         -1.3870    -3.0820    -1.2620 c6         1 A0W      -0.084400
     24 C24         -1.7610    -4.5630    -1.2350 c6         1 A0W      -0.071400
     25 C25         -2.5500    -4.9140     0.0220 c6         1 A0W      -0.075900
     26 C26         -1.7730    -4.5370     1.2800 c6         1 A0W      -0.071400
     27 C27         -1.3960    -3.0570     1.2800 c6         1 A0W      -0.084400
     28 O28         -2.1410    -0.4670    -0.0310 o          1 A0W      -0.604500
     29 H041         3.6710    -0.8850     0.0150 h1         1 A0W       0.073200
     30 H052         3.5030     0.2810    -2.1330 hc         1 A0W       0.058450
     31 H051         3.6380     1.8360    -1.3250 hc         1 A0W       0.058450
     32 H061         5.7160    -0.3970    -1.2870 hc         1 A0W       0.033450
     33 H062         5.8510     1.1410    -2.1160 hc         1 A0W       0.033450
     34 H072         7.1070     1.1520     0.0450 hc         1 A0W       0.037200
     35 H071         5.8320     2.3550     0.0330 hc         1 A0W       0.037200
     36 H081         5.6940    -0.3950     1.3550 hc         1 A0W       0.033450
     37 H082         5.8130     1.1440     2.1840 hc         1 A0W       0.033450
     38 H092         3.6110     1.8360     1.3550 hc         1 A0W       0.058450
     39 H091         3.4650     0.2790     2.1600 hc         1 A0W       0.058450
     40 H111         0.4530     3.1990    -0.0400 ho         1 A0W       0.552000
     41 H141        -2.9160     1.3060    -0.0570 hn         1 A0W       0.577000
     42 H151        -3.0870     4.0110     0.7940 h1         1 A0W       0.049700
     43 H152        -3.0750     3.9910    -0.9610 h1         1 A0W       0.049700
     44 H221         0.2640    -3.3780     0.0170 h1         1 A0W       0.073200
     45 H232        -2.2920    -2.4810    -1.3430 hc         1 A0W       0.058450
     46 H231        -0.7690    -2.8650    -2.1380 hc         1 A0W       0.058450
     47 H241        -2.3360    -4.8130    -2.1300 hc         1 A0W       0.033450
     48 H242        -0.8500    -5.1700    -1.2690 hc         1 A0W       0.033450
     49 H251        -3.5080    -4.3840     0.0130 hc         1 A0W       0.037200
     50 H252        -2.7850    -5.9810     0.0320 hc         1 A0W       0.037200
     51 H262        -2.3560    -4.7680     2.1740 hc         1 A0W       0.033450
     52 H261        -0.8630    -5.1450     1.3350 hc         1 A0W       0.033450
     53 H272        -0.7850    -2.8230     2.1550 hc         1 A0W       0.058450
     54 H271        -2.3010    -2.4520     1.3420 hc         1 A0W       0.058450
@<TRIPOS>BOND
     1     1     2 2   
     2     2     3 1   
     3     2    21 1   
     4     3     4 1   
     5     3    10 1   
     6     4     5 1   
     7     4     9 1   
     8     4    29 1   
     9     5     6 1   
    10     5    30 1   
    11     5    31 1   
    12     6     7 1   
    13     6    32 1   
    14     6    33 1   
    15     7     8 1   
    16     7    34 1   
    17     7    35 1   
    18     8     9 1   
    19     8    36 1   
    20     8    37 1   
    21     9    38 1   
    22     9    39 1   
    23    10    11 2   
    24    10    12 1   
    25    12    13 2   
    26    12    20 1   
    27    13    14 1   
    28    13    19 1   
    29    14    15 1   
    30    14    41 1   
    31    15    16 1   
    32    15    42 1   
    33    15    43 1   
    34    16    17 1   
    35    16    18 1   
    36    19    40 1   
    37    20    21 1   
    38    20    28 2   
    39    21    22 1   
    40    22    23 1   
    41    22    27 1   
    42    22    44 1   
    43    23    24 1   
    44    23    45 1   
    45    23    46 1   
    46    24    25 1   
    47    24    47 1   
    48    24    48 1   
    49    25    26 1   
    50    25    49 1   
    51    25    50 1   
    52    26    27 1   
    53    26    51 1   
    54    26    52 1   
    55    27    53 1   
    56    27    54 1   
@<TRIPOS>SUBSTRUCTURE
     1 A0W         1 TEMP              0 ****  ****    0 ROOT
