@<TRIPOS>MOLECULE
A0W
   54    56     1     0     0
SMALL
No Charge or Current Charge


@<TRIPOS>ATOM
      1 O01          2.0480    -2.2280     0.0160 o          1 A0W      -0.590000
      2 C02          1.3370    -1.2310     0.0240 c          1 A0W       0.627000
      3 N03          1.9100     0.0450     0.0270 n          1 A0W      -0.360400
      4 C04          3.4190     0.1540     0.0180 c6         1 A0W       0.119200
      5 C05          4.0030     0.7860    -1.2790 c6         1 A0W      -0.084400
      6 C06          5.5510     0.7250    -1.2730 c6         1 A0W      -0.071400
      7 C07          6.1360     1.3710     0.0090 c6         1 A0W      -0.075900
      8 C08          5.5690     0.7040     1.2890 c6         1 A0W      -0.071400
      9 C09          4.0200     0.7650     1.3160 c6         1 A0W      -0.084400
     10 C10          1.1520     1.2170     0.0400 c          1 A0W       0.622200
     11 O11          1.6880     2.3150     0.0460 o          1 A0W      -0.604500
     12 C12         -0.3160     1.0960     0.0480 cc         1 A0W      -0.582400
     13 C13         -1.1230     2.2020     0.0650 c2         1 A0W       0.472100
     14 N14         -2.4880     2.1890     0.0830 nu         1 A0W      -0.711200
     15 C15         -3.3950     3.3480    -0.1690 c3         1 A0W       0.036800
     16 C16         -4.9140     2.9710    -0.1800 c          1 A0W       0.715000
     17 O17         -5.2230     1.7920    -0.3120 o          1 A0W      -0.708500
     18 O18         -5.7320     3.8680    -0.0240 o          1 A0W      -0.708500
     19 O19         -0.5590     3.3970     0.0720 oh         1 A0W      -0.587100
     20 C20         -0.9190    -0.2510     0.0360 c          1 A0W       0.622200
     21 N21         -0.0560    -1.3520     0.0280 n          1 A0W      -0.360400
     22 C22         -0.6520    -2.7440     0.0230 c6         1 A0W       0.119200
     23 C23         -1.4280    -3.1000    -1.2770 c6         1 A0W      -0.084400
     24 C24         -1.8710    -4.5850    -1.2660 c6         1 A0W      -0.071400
     25 C25         -2.6810    -4.9230     0.0120 c6         1 A0W      -0.075900
     26 C26         -1.8760    -4.5940     1.2960 c6         1 A0W      -0.071400
     27 C27         -1.4330    -3.1090     1.3180 c6         1 A0W      -0.084400
     28 O28         -2.1310    -0.4100     0.0310 o          1 A0W      -0.604500
     29 H041         3.8400    -0.8590     0.0060 h1         1 A0W       0.073200
     30 H052         3.6160     0.2540    -2.1580 hc         1 A0W       0.058450
     31 H051         3.6900     1.8320    -1.3830 hc         1 A0W       0.058450
     32 H061         5.8810    -0.3210    -1.3430 hc         1 A0W       0.033450
     33 H062         5.9470     1.2360    -2.1610 hc         1 A0W       0.033450
     34 H072         7.2310     1.2850     0.0010 hc         1 A0W       0.037200
     35 H071         5.9080     2.4460     0.0200 hc         1 A0W       0.037200
     36 H081         5.9000    -0.3430     1.3370 hc         1 A0W       0.033450
     37 H082         5.9760     1.2010     2.1800 hc         1 A0W       0.033450
     38 H092         3.7080     1.8090     1.4420 hc         1 A0W       0.058450
     39 H091         3.6450     0.2190     2.1920 hc         1 A0W       0.058450
     40 H111         0.4110     3.1760     0.0630 ho         1 A0W       0.552000
     41 H141        -2.8910     1.2420     0.0340 hn         1 A0W       0.577000
     42 H151        -3.2440     4.1140     0.6020 h1         1 A0W       0.049700
     43 H152        -3.1640     3.7970    -1.1430 h1         1 A0W       0.049700
     44 H221         0.1690    -3.4720     0.0230 h1         1 A0W       0.073200
     45 H232        -2.3160    -2.4660    -1.3930 hc         1 A0W       0.058450
     46 H231        -0.7930    -2.9110    -2.1530 hc         1 A0W       0.058450
     47 H241        -2.4760    -4.7990    -2.1580 hc         1 A0W       0.033450
     48 H242        -0.9880    -5.2360    -1.3260 hc         1 A0W       0.033450
     49 H251        -3.6240    -4.3590     0.0130 hc         1 A0W       0.037200
     50 H252        -2.9540    -5.9870     0.0080 hc         1 A0W       0.037200
     51 H262        -2.4840    -4.8140     2.1840 hc         1 A0W       0.033450
     52 H261        -0.9920    -5.2450     1.3540 hc         1 A0W       0.033450
     53 H272        -0.8010    -2.9250     2.1980 hc         1 A0W       0.058450
     54 H271        -2.3210    -2.4760     1.4350 hc         1 A0W       0.058450
@<TRIPOS>BOND
     1     1     2 2   
     2     2     3 1   
     3     2    21 1   
     4     3     4 1   
     5     3    10 1   
     6     4     5 1   
     7     4     9 1   
     8     4    29 1   
     9     5     6 1   
    10     5    30 1   
    11     5    31 1   
    12     6     7 1   
    13     6    32 1   
    14     6    33 1   
    15     7     8 1   
    16     7    34 1   
    17     7    35 1   
    18     8     9 1   
    19     8    36 1   
    20     8    37 1   
    21     9    38 1   
    22     9    39 1   
    23    10    11 2   
    24    10    12 1   
    25    12    13 2   
    26    12    20 1   
    27    13    14 1   
    28    13    19 1   
    29    14    15 1   
    30    14    41 1   
    31    15    16 1   
    32    15    42 1   
    33    15    43 1   
    34    16    17 1   
    35    16    18 1   
    36    19    40 1   
    37    20    21 1   
    38    20    28 2   
    39    21    22 1   
    40    22    23 1   
    41    22    27 1   
    42    22    44 1   
    43    23    24 1   
    44    23    45 1   
    45    23    46 1   
    46    24    25 1   
    47    24    47 1   
    48    24    48 1   
    49    25    26 1   
    50    25    49 1   
    51    25    50 1   
    52    26    27 1   
    53    26    51 1   
    54    26    52 1   
    55    27    53 1   
    56    27    54 1   
@<TRIPOS>SUBSTRUCTURE
     1 A0W         1 TEMP              0 ****  ****    0 ROOT
