@<TRIPOS>MOLECULE
A0X
   80    85     1     0     0
SMALL
No Charge or Current Charge


@<TRIPOS>ATOM
      1 C10        -17.1770    -0.5180    11.4050 c          1 A0X       0.507600
      2 C13        -13.4860    -2.4620    19.7340 ca         1 A0X      -0.127600
      3 C17        -12.5950    -2.7490    20.9380 c          1 A0X       0.624700
      4 C20        -12.5060    -2.2070    23.4540 ca         1 A0X       0.002000
      5 C21        -13.2980    -1.6440    24.4700 ca         1 A0X      -0.161000
      6 C22        -12.8580    -1.6370    25.8070 ca         1 A0X       0.037800
      7 C24        -10.7870    -2.7450    25.1260 ca         1 A0X      -0.150300
      8 C28        -15.7000    -0.6320    27.2920 cc         1 A0X       0.256300
      9 C01        -15.7610    -1.0540    11.3970 cc         1 A0X       0.271500
     10 N02        -15.1330    -1.3320    12.5620 nd         1 A0X      -0.461800
     11 N03        -13.8410    -1.8060    12.3550 na         1 A0X       0.251900
     12 C04        -13.2400    -1.9790    11.1330 cd         1 A0X      -0.105000
     13 C05        -13.9030    -1.6890     9.9140 cd         1 A0X      -0.031000
     14 C06        -15.1840    -1.2220    10.0720 cc         1 A0X      -0.126000
     15 C07        -12.9700    -2.1740    13.3580 cd         1 A0X      -0.004800
     16 C08        -11.8450    -2.5600    12.6580 cc         1 A0X      -0.000400
     17 N09        -12.0120    -2.4390    11.2920 nc         1 A0X      -0.263600
     18 C11        -13.2100    -2.1670    14.7570 ch         1 A0X      -0.102300
     19 C12        -15.7480    -1.9990    18.8830 ca         1 A0X       0.141100
     20 C14        -12.9830    -2.4340    18.3950 ca         1 A0X      -0.035300
     21 O15        -17.0820    -1.7790    19.1630 os         1 A0X      -0.342100
     22 C16        -11.4810    -2.6080    18.1110 c3         1 A0X      -0.050800
     23 N18        -13.0260    -2.1780    22.1300 ns         1 A0X      -0.147000
     24 O19        -11.6170    -3.4840    20.8700 o          1 A0X      -0.553100
     25 C23        -11.6080    -2.1900    26.1300 ca         1 A0X      -0.107000
     26 C25        -11.2470    -2.7540    23.7900 ca         1 A0X      -0.098000
     27 N26        -13.6450    -1.0860    26.8170 na         1 A0X      -0.084300
     28 C27        -14.8700    -1.6860    27.0150 cd         1 A0X      -0.223000
     29 N29        -15.0640     0.5740    27.1360 nc         1 A0X      -0.668000
     30 C30        -13.8180     0.2850    26.7640 cd         1 A0X       0.412400
     31 N32        -17.7440    -0.3240    12.6570 ns         1 A0X      -0.484900
     32 O33        -17.8210    -0.2520    10.3940 o          1 A0X      -0.591100
     33 C34        -13.4940    -2.1900    15.9420 cg         1 A0X      -0.088000
     34 C35        -18.0280    -1.5310    18.1100 c3         1 A0X       0.158600
     35 C36        -19.3940    -1.2080    18.7360 c3         1 A0X      -0.080400
     36 C37        -15.2530    -1.9990    17.5700 ca         1 A0X      -0.163000
     37 C38        -14.8710    -2.2310    19.9480 ca         1 A0X      -0.120000
     38 C39        -13.8920    -2.2110    17.3220 ca         1 A0X       0.061000
     39 C40        -20.5300    -1.0160    17.6990 c3         1 A0X      -0.072400
     40 C41        -20.2720     0.0780    16.6280 c3         1 A0X      -0.080400
     41 C42        -19.6520    -0.4380    15.3000 c3         1 A0X      -0.077400
     42 C43        -19.3900     0.7040    14.2900 c3         1 A0X      -0.095400
     43 C44        -19.0890     0.2340    12.8510 c3         1 A0X       0.103000
     44 C45         -9.4210    -3.3550    25.4700 c3         1 A0X       0.358300
     45 F46         -8.4890    -3.0750    24.5300 f          1 A0X      -0.108667
     46 F47         -8.9280    -2.9040    26.6470 f          1 A0X      -0.108667
     47 F48         -9.4940    -4.7020    25.5640 f          1 A0X      -0.108667
     48 H1         -14.2680    -1.2170    24.2220 ha         1 A0X       0.129000
     49 H2         -13.4390    -1.8240     8.9420 ha         1 A0X       0.156000
     50 H3         -15.7720    -0.9700     9.1950 ha         1 A0X       0.163000
     51 H4         -10.9080    -2.9290    13.0620 h4         1 A0X       0.240000
     52 H5         -11.1730    -2.2230    17.1330 hc         1 A0X       0.055033
     53 H6         -10.8710    -2.0640    18.8410 hc         1 A0X       0.055033
     54 H7         -11.1960    -3.6660    18.1490 hc         1 A0X       0.055033
     55 H8         -13.8620    -1.6170    22.0360 hn         1 A0X       0.162000
     56 H9         -11.2820    -2.1850    27.1690 ha         1 A0X       0.147000
     57 H10        -10.6090    -3.1860    23.0260 ha         1 A0X       0.168000
     58 H11        -15.0510    -2.7530    26.9600 h4         1 A0X       0.158000
     59 H12        -13.0360     0.9720    26.4630 h5         1 A0X       0.061100
     60 H13        -17.7680    -0.2560    26.8410 hc         1 A0X       0.045033
     61 H14        -17.4830    -1.7200    27.8020 hc         1 A0X       0.045033
     62 H15        -17.3580    -0.1240    28.5640 hc         1 A0X       0.045033
     63 H16        -17.1720    -0.5570    13.4620 hn         1 A0X       0.337500
     64 H17        -18.1200    -2.4110    17.4600 h1         1 A0X       0.038200
     65 H18        -17.7030    -0.6740    17.5070 h1         1 A0X       0.038200
     66 H19        -19.3000    -0.2980    19.3400 hc         1 A0X       0.056700
     67 H20        -19.6740    -2.0170    19.4210 hc         1 A0X       0.056700
     68 H21        -15.9120    -1.8340    16.7230 ha         1 A0X       0.129000
     69 H22        -15.2970    -2.2570    20.9490 ha         1 A0X       0.134000
     70 H23        -21.4400    -0.7490    18.2520 hc         1 A0X       0.047200
     71 H24        -20.7460    -1.9730    17.2070 hc         1 A0X       0.047200
     72 H25        -19.6430     0.8700    17.0520 hc         1 A0X       0.041700
     73 H26        -21.2340     0.5490    16.3880 hc         1 A0X       0.041700
     74 H27        -20.3440    -1.1620    14.8520 hc         1 A0X       0.041700
     75 H28        -18.7150    -0.9720    15.4880 hc         1 A0X       0.041700
     76 H29        -18.5750     1.3440    14.6500 hc         1 A0X       0.050200
     77 H30        -20.2850     1.3360    14.2450 hc         1 A0X       0.050200
     78 H31        -19.1940     1.1000    12.1840 h1         1 A0X       0.056200
     79 H32        -19.8330    -0.5120    12.5420 h1         1 A0X       0.056200
     80 C31        -17.1570    -0.6860    27.6440 c3         1 A0X      -0.110400
@<TRIPOS>BOND
     1     1     9 1   
     2     1    31 1   
     3     1    32 2   
     4     2     3 1   
     5     2    20 ar  
     6     2    37 ar  
     7     3    23 1   
     8     3    24 2   
     9     4     5 ar  
    10     4    23 1   
    11     4    26 ar  
    12     5     6 ar  
    13     5    48 1   
    14     6    25 ar  
    15     6    27 1   
    16     7    25 ar  
    17     7    26 ar  
    18     7    44 1   
    19     8    28 2   
    20     8    29 1   
    21     8    80 1   
    22     9    10 2   
    23     9    14 1   
    24    10    11 1   
    25    11    12 1   
    26    11    15 1   
    27    12    13 1   
    28    12    17 2   
    29    13    14 2   
    30    13    49 1   
    31    14    50 1   
    32    15    16 2   
    33    15    18 1   
    34    16    17 1   
    35    16    51 1   
    36    18    33 3   
    37    19    21 1   
    38    19    36 ar  
    39    19    37 ar  
    40    20    22 1   
    41    20    38 ar  
    42    21    34 1   
    43    22    52 1   
    44    22    53 1   
    45    22    54 1   
    46    23    55 1   
    47    25    56 1   
    48    26    57 1   
    49    27    28 1   
    50    27    30 1   
    51    28    58 1   
    52    29    30 2   
    53    30    59 1   
    54    31    43 1   
    55    31    63 1   
    56    33    38 1   
    57    34    35 1   
    58    34    64 1   
    59    34    65 1   
    60    35    39 1   
    61    35    66 1   
    62    35    67 1   
    63    36    38 ar  
    64    36    68 1   
    65    37    69 1   
    66    39    40 1   
    67    39    70 1   
    68    39    71 1   
    69    40    41 1   
    70    40    72 1   
    71    40    73 1   
    72    41    42 1   
    73    41    74 1   
    74    41    75 1   
    75    42    43 1   
    76    42    76 1   
    77    42    77 1   
    78    43    78 1   
    79    43    79 1   
    80    44    45 1   
    81    44    46 1   
    82    44    47 1   
    83    60    80 1   
    84    61    80 1   
    85    62    80 1   
@<TRIPOS>SUBSTRUCTURE
     1 A0X         1 TEMP              0 ****  ****    0 ROOT
