@<TRIPOS>MOLECULE
A0X
   80    85     1     0     0
SMALL
abcg2


@<TRIPOS>ATOM
      1 C10        -17.0780    -0.0620    11.7870 c          1 A0X       0.507600
      2 C13        -13.8750    -2.9290    19.6720 ca         1 A0X      -0.127600
      3 C17        -13.0350    -3.2150    20.8800 c          1 A0X       0.624700
      4 C20        -12.8180    -2.4540    23.2380 ca         1 A0X       0.002000
      5 C21        -13.2430    -1.4380    24.0950 ca         1 A0X      -0.161000
      6 C22        -12.7970    -1.3900    25.4020 ca         1 A0X       0.037800
      7 C24        -11.4840    -3.3400    25.0230 ca         1 A0X      -0.150300
      8 C28        -14.4430     1.1780    27.2350 cc         1 A0X       0.256300
      9 C01        -15.5990    -0.3370    11.7160 cc         1 A0X       0.271500
     10 N02        -14.9990    -0.7540    12.7930 nd         1 A0X      -0.461800
     11 N03        -13.7000    -0.9650    12.6850 na         1 A0X       0.251900
     12 C04        -12.9320    -0.7690    11.5530 cd         1 A0X      -0.105000
     13 C05        -13.5950    -0.3220    10.4000 cd         1 A0X      -0.031000
     14 C06        -14.9360    -0.1120    10.4810 cc         1 A0X      -0.126000
     15 C07        -12.8570    -1.4100    13.6740 cd         1 A0X      -0.004800
     16 C08        -11.6130    -1.4500    13.0690 cc         1 A0X      -0.000400
     17 N09        -11.6660    -1.0610    11.7840 nc         1 A0X      -0.263600
     18 C11        -13.2770    -1.7400    14.9670 ch         1 A0X      -0.102300
     19 C12        -16.0830    -2.8730    18.6930 ca         1 A0X       0.141100
     20 C14        -13.2700    -2.5970    18.4550 ca         1 A0X      -0.035300
     21 O15        -17.4030    -3.0180    18.8910 os         1 A0X      -0.342100
     22 C16        -11.7860    -2.4330    18.3060 c3         1 A0X      -0.050800
     23 N18        -13.3410    -2.4290    21.9470 ns         1 A0X      -0.147000
     24 O19        -12.1800    -4.0770    20.8810 o          1 A0X      -0.553100
     25 C23        -11.9160    -2.3500    25.8860 ca         1 A0X      -0.107000
     26 C25        -11.9190    -3.4100    23.7040 ca         1 A0X      -0.098000
     27 N26        -13.2410    -0.3600    26.2500 na         1 A0X      -0.084300
     28 C27        -14.4970     0.2030    26.2840 cd         1 A0X      -0.223000
     29 N29        -13.1810     1.2290    27.7730 nc         1 A0X      -0.668000
     30 C30        -12.4930     0.3030    27.1680 cd         1 A0X       0.412400
     31 N32        -17.6590    -0.1250    12.9870 ns         1 A0X      -0.484900
     32 O33        -17.6770     0.2240    10.7610 o          1 A0X      -0.591100
     33 C34        -13.6260    -2.0440    16.0820 cg         1 A0X      -0.088000
     34 C35        -18.2620    -2.7480    17.7900 c3         1 A0X       0.158600
     35 C36        -19.6980    -2.8290    18.2520 c3         1 A0X      -0.080400
     36 C37        -15.5110    -2.5520    17.4730 ca         1 A0X      -0.163000
     37 C38        -15.2510    -3.0560    19.7980 ca         1 A0X      -0.120000
     38 C39        -14.1240    -2.4070    17.3620 ca         1 A0X       0.061000
     39 C40        -20.6810    -2.5720    17.1100 c3         1 A0X      -0.072400
     40 C41        -20.5280    -1.2030    16.4340 c3         1 A0X      -0.080400
     41 C42        -19.7180    -1.2140    15.1370 c3         1 A0X      -0.077400
     42 C43        -19.5370     0.1940    14.5810 c3         1 A0X      -0.095400
     43 C44        -19.0500     0.2680    13.1440 c3         1 A0X       0.103000
     44 C45        -10.5300    -4.3950    25.5020 c3         1 A0X       0.358300
     45 F46         -9.3680    -4.3470    24.8360 f          1 A0X      -0.108667
     46 F47        -10.2430    -4.2730    26.8000 f          1 A0X      -0.108667
     47 F48        -11.0240    -5.6270    25.3230 f          1 A0X      -0.108667
     48 H1         -13.9150    -0.6730    23.7260 ha         1 A0X       0.129000
     49 H2         -13.0350    -0.1590     9.4900 ha         1 A0X       0.156000
     50 H3         -15.5020     0.2290     9.6280 ha         1 A0X       0.163000
     51 H4         -10.6910    -1.7550    13.5400 h4         1 A0X       0.240000
     52 H5         -11.5490    -1.7570    17.4870 hc         1 A0X       0.055033
     53 H6         -11.3250    -2.0280    19.2060 hc         1 A0X       0.055033
     54 H7         -11.3000    -3.3870    18.0920 hc         1 A0X       0.055033
     55 H8         -14.0230    -1.7030    21.7770 hn         1 A0X       0.162000
     56 H9         -11.6000    -2.3220    26.9190 ha         1 A0X       0.147000
     57 H10        -11.5700    -4.1970    23.0550 ha         1 A0X       0.168000
     58 H11        -15.3050    -0.1520    25.6660 h4         1 A0X       0.158000
     59 H12        -11.4490     0.0790    27.3300 h5         1 A0X       0.061100
     60 H13        -15.2730     3.1330    27.5070 hc         1 A0X       0.045033
     61 H14        -16.4590     1.8790    27.1520 hc         1 A0X       0.045033
     62 H15        -15.7260     1.9790    28.7520 hc         1 A0X       0.045033
     63 H16        -17.0990    -0.3260    13.8010 hn         1 A0X       0.337500
     64 H17        -18.0800    -3.4690    16.9840 h1         1 A0X       0.038200
     65 H18        -18.0440    -1.7490    17.3980 h1         1 A0X       0.038200
     66 H19        -19.8660    -2.0940    19.0450 hc         1 A0X       0.056700
     67 H20        -19.8900    -3.8150    18.6820 hc         1 A0X       0.056700
     68 H21        -16.1100    -2.4020    16.5860 ha         1 A0X       0.129000
     69 H22        -15.6940    -3.3120    20.7530 ha         1 A0X       0.134000
     70 H23        -21.6890    -2.6660    17.5200 hc         1 A0X       0.047200
     71 H24        -20.5890    -3.3670    16.3630 hc         1 A0X       0.047200
     72 H25        -20.0860    -0.4900    17.1390 hc         1 A0X       0.041700
     73 H26        -21.5180    -0.8020    16.1990 hc         1 A0X       0.041700
     74 H27        -20.2430    -1.8310    14.4010 hc         1 A0X       0.041700
     75 H28        -18.7430    -1.6880    15.2860 hc         1 A0X       0.041700
     76 H29        -18.8770     0.7750    15.2320 hc         1 A0X       0.050200
     77 H30        -20.5030     0.7070    14.6010 hc         1 A0X       0.050200
     78 H31        -19.1710     1.2910    12.7780 h1         1 A0X       0.056200
     79 H32        -19.6800    -0.3670    12.5150 h1         1 A0X       0.056200
     80 C31        -15.5320     2.0880    27.6830 c3         1 A0X      -0.110400
@<TRIPOS>BOND
     1     1     9 1   
     2     1    31 1   
     3     1    32 2   
     4     2     3 1   
     5     2    20 ar  
     6     2    37 ar  
     7     3    23 1   
     8     3    24 2   
     9     4     5 ar  
    10     4    23 1   
    11     4    26 ar  
    12     5     6 ar  
    13     5    48 1   
    14     6    25 ar  
    15     6    27 1   
    16     7    25 ar  
    17     7    26 ar  
    18     7    44 1   
    19     8    28 2   
    20     8    29 1   
    21     8    80 1   
    22     9    10 2   
    23     9    14 1   
    24    10    11 1   
    25    11    12 1   
    26    11    15 1   
    27    12    13 1   
    28    12    17 2   
    29    13    14 2   
    30    13    49 1   
    31    14    50 1   
    32    15    16 2   
    33    15    18 1   
    34    16    17 1   
    35    16    51 1   
    36    18    33 3   
    37    19    21 1   
    38    19    36 ar  
    39    19    37 ar  
    40    20    22 1   
    41    20    38 ar  
    42    21    34 1   
    43    22    52 1   
    44    22    53 1   
    45    22    54 1   
    46    23    55 1   
    47    25    56 1   
    48    26    57 1   
    49    27    28 1   
    50    27    30 1   
    51    28    58 1   
    52    29    30 2   
    53    30    59 1   
    54    31    43 1   
    55    31    63 1   
    56    33    38 1   
    57    34    35 1   
    58    34    64 1   
    59    34    65 1   
    60    35    39 1   
    61    35    66 1   
    62    35    67 1   
    63    36    38 ar  
    64    36    68 1   
    65    37    69 1   
    66    39    40 1   
    67    39    70 1   
    68    39    71 1   
    69    40    41 1   
    70    40    72 1   
    71    40    73 1   
    72    41    42 1   
    73    41    74 1   
    74    41    75 1   
    75    42    43 1   
    76    42    76 1   
    77    42    77 1   
    78    43    78 1   
    79    43    79 1   
    80    44    45 1   
    81    44    46 1   
    82    44    47 1   
    83    60    80 1   
    84    61    80 1   
    85    62    80 1   
@<TRIPOS>SUBSTRUCTURE
     1 A0X         1 TEMP              0 ****  ****    0 ROOT
