@<TRIPOS>MOLECULE
A11
   37    38     1     0     0
SMALL
bcc


@<TRIPOS>ATOM
      1 CL           4.7060     2.0670    -0.6910 cl         1 A11      -0.107400
      2 C2           4.1070     0.6550     0.1060 ca         1 A11       0.105400
      3 C3           4.9080     0.0020     1.0330 ca         1 A11      -0.308300
      4 C4           4.3550    -1.1170     1.6300 ca         1 A11       0.465200
      5 N5           3.1440    -1.5870     1.3740 nb         1 A11      -0.755000
      6 C6           2.3860    -0.9500     0.4750 ca         1 A11       0.696200
      7 C7           2.8410     0.2050    -0.1930 ca         1 A11      -0.322300
      8 N8           1.1720    -1.4950     0.2280 nu         1 A11      -0.875900
      9 C9           0.1150    -0.8730    -0.5340 c6         1 A11       0.240500
     10 C10         -0.5600     0.2810     0.2110 c6         1 A11      -0.124400
     11 C11         -1.7230     0.8450    -0.5970 c6         1 A11       0.108000
     12 N12         -2.6640    -0.2080    -0.9420 n          1 A11      -0.469800
     13 C13         -2.0650    -1.2920    -1.7000 c6         1 A11       0.108000
     14 C14         -0.9160    -1.9270    -0.9260 c6         1 A11      -0.124400
     15 C15         -3.8830    -0.3680    -0.3830 c          1 A11       0.762100
     16 O16         -4.6040    -1.3320    -0.5630 o          1 A11      -0.594000
     17 O17         -4.2320     0.6680     0.3820 os         1 A11      -0.438900
     18 C18         -5.5250     0.6280     0.9940 c3         1 A11       0.161400
     19 C19         -5.7020     1.9100     1.7720 c3         1 A11      -0.100100
     20 H3           5.9020     0.3420     1.2830 ha         1 A11       0.158000
     21 H4           4.9320    -1.6660     2.3660 h4         1 A11       0.020100
     22 H7           2.2280     0.7260    -0.9130 ha         1 A11       0.153000
     23 HN8          0.9090    -2.2450     0.8500 hn         1 A11       0.442800
     24 H9           0.5440    -0.4830    -1.4650 h1         1 A11       0.058700
     25 H101        -0.9240    -0.0780     1.1790 hc         1 A11       0.060200
     26 H102         0.1570     1.0820     0.4090 hc         1 A11       0.060200
     27 H111        -1.3480     1.2830    -1.5280 h1         1 A11       0.064700
     28 H112        -2.2200     1.6410    -0.0510 h1         1 A11       0.064700
     29 H131        -2.8200    -2.0330    -1.9450 h1         1 A11       0.064700
     30 H132        -1.6890    -0.8830    -2.6430 h1         1 A11       0.064700
     31 H141        -1.3080    -2.4160    -0.0280 hc         1 A11       0.060200
     32 H142        -0.4470    -2.6980    -1.5400 hc         1 A11       0.060200
     33 H181        -5.5970    -0.2370     1.6560 h1         1 A11       0.049700
     34 H182        -6.2990     0.5320     0.2300 h1         1 A11       0.049700
     35 H191        -5.6600     2.7840     1.1220 hc         1 A11       0.047033
     36 H192        -6.6780     1.9020     2.2570 hc         1 A11       0.047033
     37 H193        -4.9450     2.0170     2.5490 hc         1 A11       0.047033
@<TRIPOS>BOND
     1     1     2 1   
     2     2     3 ar  
     3     2     7 ar  
     4     3     4 ar  
     5     3    20 1   
     6     4     5 ar  
     7     4    21 1   
     8     5     6 ar  
     9     6     7 ar  
    10     6     8 1   
    11     7    22 1   
    12     8     9 1   
    13     8    23 1   
    14     9    10 1   
    15     9    14 1   
    16     9    24 1   
    17    10    11 1   
    18    10    25 1   
    19    10    26 1   
    20    11    12 1   
    21    11    27 1   
    22    11    28 1   
    23    12    13 1   
    24    12    15 1   
    25    13    14 1   
    26    13    29 1   
    27    13    30 1   
    28    14    31 1   
    29    14    32 1   
    30    15    16 2   
    31    15    17 1   
    32    17    18 1   
    33    18    19 1   
    34    18    33 1   
    35    18    34 1   
    36    19    35 1   
    37    19    36 1   
    38    19    37 1   
@<TRIPOS>SUBSTRUCTURE
     1 A11         1 TEMP              0 ****  ****    0 ROOT
