@<TRIPOS>MOLECULE
A11
   37    38     1     0     0
SMALL
No Charge or Current Charge


@<TRIPOS>ATOM
      1 Cl           4.4800     2.6630    -0.4450 cl         1 A11      -0.199000
      2 C2           4.1080     1.0150     0.0380 ca         1 A11       0.197000
      3 C3           5.0280     0.2620     0.7730 ca         1 A11      -0.225000
      4 C4           4.6910    -1.0500     1.1330 ca         1 A11       0.399900
      5 N5           3.5110    -1.6210     0.8030 nb         1 A11      -0.755000
      6 C6           2.6500    -0.8810     0.1090 ca         1 A11       0.630900
      7 C7           2.8880     0.4310    -0.3070 ca         1 A11      -0.239000
      8 N8           1.5140    -1.5860    -0.1600 nu         1 A11      -0.931100
      9 C9           0.2080    -1.0090    -0.4940 c6         1 A11       0.240500
     10 C10         -0.3900    -0.2950     0.7280 c6         1 A11      -0.124400
     11 C11         -1.7820     0.2970     0.4130 c6         1 A11       0.108000
     12 N12         -2.7290    -0.6310    -0.2840 n          1 A11      -0.402800
     13 C13         -2.1400    -1.5790    -1.2770 c6         1 A11       0.108000
     14 C14         -0.7470    -2.1350    -0.9110 c6         1 A11      -0.124400
     15 C15         -4.1070    -0.3370    -0.3570 c          1 A11       0.646100
     16 O16         -4.8910    -0.9540    -1.0640 o          1 A11      -0.545000
     17 O17         -4.4600     0.7110     0.4500 os         1 A11      -0.462100
     18 C18         -5.8400     1.1110     0.4680 c3         1 A11       0.184600
     19 C19         -5.9620     2.2940     1.4430 c3         1 A11      -0.100100
     20 H3           5.9880     0.6790     1.0610 ha         1 A11       0.140000
     21 H4           5.3860    -1.6650     1.7030 h4         1 A11       0.020100
     22 H7           2.1540     0.9830    -0.8820 ha         1 A11       0.135000
     23 HN8          1.5430    -2.5030     0.2730 hn         1 A11       0.498000
     24 H9           0.3020    -0.2990    -1.3310 h1         1 A11       0.058700
     25 H101        -0.4810    -1.0020     1.5640 hc         1 A11       0.060200
     26 H102         0.2750     0.5080     1.0700 hc         1 A11       0.060200
     27 H111        -1.6530     1.1880    -0.2180 h1         1 A11       0.064700
     28 H112        -2.2220     0.6380     1.3610 h1         1 A11       0.064700
     29 H131        -2.8240    -2.4270    -1.4250 h1         1 A11       0.064700
     30 H132        -2.0690    -1.0570    -2.2430 h1         1 A11       0.064700
     31 H141        -0.8530    -2.8610    -0.0930 hc         1 A11       0.060200
     32 H142        -0.3370    -2.6840    -1.7690 hc         1 A11       0.060200
     33 H181        -6.4830     0.2880     0.8080 h1         1 A11       0.049700
     34 H182        -6.1710     1.4240    -0.5310 h1         1 A11       0.049700
     35 H191        -5.3370     3.1320     1.1130 hc         1 A11       0.047033
     36 H192        -7.0010     2.6380     1.4920 hc         1 A11       0.047033
     37 H193        -5.6490     1.9970     2.4510 hc         1 A11       0.047033
@<TRIPOS>BOND
     1     1     2 1   
     2     2     3 ar  
     3     2     7 ar  
     4     3     4 ar  
     5     3    20 1   
     6     4     5 ar  
     7     4    21 1   
     8     5     6 ar  
     9     6     7 ar  
    10     6     8 1   
    11     7    22 1   
    12     8     9 1   
    13     8    23 1   
    14     9    10 1   
    15     9    14 1   
    16     9    24 1   
    17    10    11 1   
    18    10    25 1   
    19    10    26 1   
    20    11    12 1   
    21    11    27 1   
    22    11    28 1   
    23    12    13 1   
    24    12    15 1   
    25    13    14 1   
    26    13    29 1   
    27    13    30 1   
    28    14    31 1   
    29    14    32 1   
    30    15    16 2   
    31    15    17 1   
    32    17    18 1   
    33    18    19 1   
    34    18    33 1   
    35    18    34 1   
    36    19    35 1   
    37    19    36 1   
    38    19    37 1   
@<TRIPOS>SUBSTRUCTURE
     1 A11         1 TEMP              0 ****  ****    0 ROOT
