@<TRIPOS>MOLECULE
A12
   41    43     1     0     0
SMALL
bcc


@<TRIPOS>ATOM
      1 PB          -3.6390     2.6110    -0.5750 p5         1 A12       1.184700
      2 O1B         -5.1010     2.1580    -0.5630 o          1 A12      -0.952833
      3 O2B         -3.1540     3.2070     0.7500 o          1 A12      -0.952833
      4 O3B         -3.2910     3.4770    -1.7970 o          1 A12      -0.952833
      5 PA          -2.4200     0.0340     0.6470 p5         1 A12       1.256600
      6 O1A         -3.7310    -0.3120     1.3030 o          1 A12      -0.852000
      7 O2A         -1.2920     0.5210     1.5340 o          1 A12      -0.852000
      8 C3A         -2.6240     1.0560    -0.8250 c3         1 A12      -0.415800
      9 O5          -1.8700    -1.3720    -0.1110 os         1 A12      -0.548200
     10 C5          -1.0660    -2.2650     0.6020 c3         1 A12       0.204400
     11 C4           0.0560    -2.7720    -0.2900 c5         1 A12       0.127100
     12 O4           0.7850    -1.6830    -0.8670 os         1 A12      -0.357600
     13 C3           1.0790    -3.5820     0.4930 c5         1 A12       0.071100
     14 O3           1.7060    -4.4960    -0.3700 oh         1 A12      -0.599800
     15 C2           2.0540    -2.4820     0.9200 c5         1 A12       0.040100
     16 O2           3.3450    -2.9260     1.2200 oh         1 A12      -0.591800
     17 C1           2.0720    -1.6090    -0.3340 c5         1 A12       0.276800
     18 N9           2.4060    -0.2280    -0.0900 na         1 A12      -0.266000
     19 C8           1.6130     0.7300     0.4930 cc         1 A12       0.483700
     20 N7           2.1980     1.8920     0.5630 nd         1 A12      -0.557100
     21 C7           3.4320     1.6970     0.0010 ca         1 A12      -0.194200
     22 C6           4.5170     2.5540    -0.2420 ca         1 A12       0.745200
     23 N6           4.5150     3.8410     0.1280 nv         1 A12      -0.963500
     24 N1           5.5970     2.0510    -0.8500 nb         1 A12      -0.860000
     25 C10          5.6000     0.7660    -1.1910 ca         1 A12       0.650900
     26 N3           4.6520    -0.1370    -1.0120 nb         1 A12      -0.737000
     27 C9           3.5820     0.3820    -0.4140 ca         1 A12       0.418800
     28 H3A1        -1.6220     1.3220    -1.1740 hc         1 A12       0.026200
     29 H3A2        -3.0840     0.4590    -1.6190 hc         1 A12       0.026200
     30 H5'1        -1.6410    -3.1410     0.9350 h1         1 A12       0.001200
     31 H5'2        -0.6500    -1.7980     1.5020 h1         1 A12       0.001200
     32 H4          -0.3680    -3.3630    -1.1080 h1         1 A12       0.079700
     33 H3           0.6280    -4.0880     1.3570 h1         1 A12       0.044700
     34 HO3          2.5580    -4.7270     0.0160 ho         1 A12       0.393000
     35 H2           1.6180    -1.9180     1.7540 h1         1 A12       0.086700
     36 HO2          3.3670    -3.2020     2.1400 ho         1 A12       0.392000
     37 H1           2.8260    -1.9840    -1.0360 h2         1 A12       0.079700
     38 H8           0.5980     0.5260     0.8340 h5         1 A12       0.187800
     39 HN61         5.2450     4.4500    -0.1960 hn         1 A12       0.434800
     40 HN62         3.6630     4.2720     0.4400 hn         1 A12       0.434800
     41 H6           6.5050     0.4180    -1.6810 h5         1 A12       0.008100
@<TRIPOS>BOND
     1     1     2 1   
     2     1     3 1   
     3     1     4 1   
     4     1     8 1   
     5     5     6 1   
     6     5     7 1   
     7     5     8 1   
     8     5     9 1   
     9     8    28 1   
    10     8    29 1   
    11     9    10 1   
    12    10    11 1   
    13    10    30 1   
    14    10    31 1   
    15    11    12 1   
    16    11    13 1   
    17    11    32 1   
    18    12    17 1   
    19    13    14 1   
    20    13    15 1   
    21    13    33 1   
    22    14    34 1   
    23    15    16 1   
    24    15    17 1   
    25    15    35 1   
    26    16    36 1   
    27    17    18 1   
    28    17    37 1   
    29    18    19 1   
    30    18    27 1   
    31    19    20 2   
    32    19    38 1   
    33    20    21 1   
    34    21    22 ar  
    35    21    27 ar  
    36    22    23 1   
    37    22    24 ar  
    38    23    39 1   
    39    23    40 1   
    40    24    25 ar  
    41    25    26 ar  
    42    25    41 1   
    43    26    27 ar  
@<TRIPOS>SUBSTRUCTURE
     1 A12         1 TEMP              0 ****  ****    0 ROOT
