@<TRIPOS>MOLECULE
A12
   41    43     1     0     0
SMALL
No Charge or Current Charge


@<TRIPOS>ATOM
      1 PB          -3.6380     1.8200    -0.8750 p5         1 A12       1.342500
      2 O1B         -4.2030     0.5550    -1.4160 o          1 A12      -0.952833
      3 O2B         -4.4920     2.3980     0.1990 o          1 A12      -0.952833
      4 O3B         -3.5330     2.8270    -1.9680 o          1 A12      -0.952833
      5 PA          -1.9510     0.1530     0.7100 p5         1 A12       1.414400
      6 O1A         -3.1580    -0.0790     1.5590 o          1 A12      -0.852000
      7 O2A         -0.7100     0.2290     1.5370 o          1 A12      -0.852000
      8 C3A         -1.9830     1.6510    -0.2630 c3         1 A12      -0.731400
      9 O5          -1.7850    -0.9460    -0.4600 os         1 A12      -0.571400
     10 C5          -1.4490    -2.2990    -0.1140 c3         1 A12       0.227600
     11 C4           0.0270    -2.6550    -0.5050 c5         1 A12       0.150300
     12 O4           0.8400    -1.4680    -0.7470 os         1 A12      -0.404000
     13 C3           0.7890    -3.4980     0.5820 c5         1 A12       0.094300
     14 O3           1.7050    -4.4470     0.0170 oh         1 A12      -0.722000
     15 C2           1.5700    -2.3710     1.3130 c5         1 A12       0.063300
     16 O2           2.6500    -2.8940     2.1170 oh         1 A12      -0.714000
     17 C1           2.0290    -1.5550     0.0600 c5         1 A12       0.329300
     18 N9           2.5910    -0.2200     0.2610 na         1 A12      -0.295300
     19 C8           2.3700     0.6090     1.3690 cc         1 A12       0.483700
     20 N7           3.0960     1.7470     1.2790 nd         1 A12      -0.557100
     21 C7           3.7730     1.6030     0.0650 ca         1 A12      -0.063600
     22 C6           4.6810     2.4810    -0.5670 ca         1 A12       0.416900
     23 N6           5.0470     3.6800    -0.0370 nv         1 A12      -1.073900
     24 N1           5.2350     2.1720    -1.7500 nb         1 A12      -0.334000
     25 C10          4.8740     0.9790    -2.2830 ca         1 A12       0.124900
     26 N3           4.0170     0.0770    -1.7480 nb         1 A12      -0.211000
     27 C9           3.4740     0.4200    -0.5620 ca         1 A12       0.090500
     28 H3A1        -1.7170     2.5080     0.3610 hc         1 A12       0.026200
     29 H3A2        -1.2680     1.5680    -1.0860 hc         1 A12       0.026200
     30 H5'1        -2.1250    -2.9960    -0.6260 h1         1 A12       0.001200
     31 H5'2        -1.5820    -2.4630     0.9640 h1         1 A12       0.001200
     32 H4          -0.0240    -3.2210    -1.4450 h1         1 A12       0.079700
     33 H3           0.0920    -4.0080     1.2620 h1         1 A12       0.044700
     34 HO3          2.4840    -4.4280     0.6240 ho         1 A12       0.492000
     35 H2           0.8820    -1.7750     1.9280 h1         1 A12       0.086700
     36 HO2          2.2750    -3.1490     2.9950 ho         1 A12       0.491000
     37 H1           2.7940    -2.1220    -0.4870 h2         1 A12       0.079700
     38 H8           1.7090     0.3370     2.1860 h5         1 A12       0.187800
     39 HN61         5.4680     4.3670    -0.6570 hn         1 A12       0.490000
     40 HN62         4.4900     4.0380     0.7360 hn         1 A12       0.490000
     41 H6           5.3190     0.7180    -3.2420 h5         1 A12       0.008100
@<TRIPOS>BOND
     1     1     2 1   
     2     1     3 1   
     3     1     4 1   
     4     1     8 1   
     5     5     6 1   
     6     5     7 1   
     7     5     8 1   
     8     5     9 1   
     9     8    28 1   
    10     8    29 1   
    11     9    10 1   
    12    10    11 1   
    13    10    30 1   
    14    10    31 1   
    15    11    12 1   
    16    11    13 1   
    17    11    32 1   
    18    12    17 1   
    19    13    14 1   
    20    13    15 1   
    21    13    33 1   
    22    14    34 1   
    23    15    16 1   
    24    15    17 1   
    25    15    35 1   
    26    16    36 1   
    27    17    18 1   
    28    17    37 1   
    29    18    19 1   
    30    18    27 1   
    31    19    20 2   
    32    19    38 1   
    33    20    21 1   
    34    21    22 ar  
    35    21    27 ar  
    36    22    23 1   
    37    22    24 ar  
    38    23    39 1   
    39    23    40 1   
    40    24    25 ar  
    41    25    26 ar  
    42    25    41 1   
    43    26    27 ar  
@<TRIPOS>SUBSTRUCTURE
     1 A12         1 TEMP              0 ****  ****    0 ROOT
