@<TRIPOS>MOLECULE
A13
   18    18     1     0     0
SMALL
abcg2


@<TRIPOS>ATOM
      1 C1           1.7430    -1.1470    -0.0290 ca         1 A13       0.180300
      2 C2           0.3470    -1.2510    -0.0320 ca         1 A13      -0.248000
      3 C3          -0.3360    -0.0560    -0.0060 ca         1 A13       0.065300
      4 N4           0.2450     1.1290     0.0220 nb         1 A13      -0.227000
      5 C5           1.5800     1.1240     0.0240 ca         1 A13       0.402900
      6 N6           2.3490     0.0250     0.0010 nb         1 A13      -0.246000
      7 N7           2.2050     2.3080     0.0430 nv         1 A13      -1.070900
      8 C8           2.6020    -2.3680    -0.0870 c3         1 A13      -0.155400
      9 C9          -1.8430     0.0040    -0.0080 c3         1 A13       0.263700
     10 F10         -2.2990     0.6420     1.0730 f          1 A13      -0.104667
     11 F11         -2.2930     0.6650    -1.0780 f          1 A13      -0.104667
     12 F12         -2.3990    -1.2080    -0.0230 f          1 A13      -0.104667
     13 H2          -0.1420    -2.2130    -0.0510 ha         1 A13       0.150000
     14 HN71         1.6800     3.1610     0.1250 hn         1 A13       0.509000
     15 HN72         3.2060     2.3500     0.1020 hn         1 A13       0.509000
     16 H81          2.8370    -2.6020    -1.1280 hc         1 A13       0.060033
     17 H82          3.5420    -2.2080     0.4360 hc         1 A13       0.060033
     18 H83          2.0960    -3.2330     0.3370 hc         1 A13       0.060033
@<TRIPOS>BOND
     1     1     2 ar  
     2     1     6 ar  
     3     1     8 1   
     4     2     3 ar  
     5     2    13 1   
     6     3     4 ar  
     7     3     9 1   
     8     4     5 ar  
     9     5     6 ar  
    10     5     7 1   
    11     7    14 1   
    12     7    15 1   
    13     8    16 1   
    14     8    17 1   
    15     8    18 1   
    16     9    10 1   
    17     9    11 1   
    18     9    12 1   
@<TRIPOS>SUBSTRUCTURE
     1 A13         1 TEMP              0 ****  ****    0 ROOT
