@<TRIPOS>MOLECULE
A13
   18    18     1     0     0
SMALL
No Charge or Current Charge


@<TRIPOS>ATOM
      1 C1           1.7610    -1.1360    -0.1090 ca         1 A13       0.180300
      2 C2           0.3560    -1.2110    -0.1030 ca         1 A13      -0.248000
      3 C3          -0.3730    -0.0070    -0.0030 ca         1 A13       0.065300
      4 N4           0.2750     1.1790     0.0770 nb         1 A13      -0.227000
      5 C5           1.6160     1.1350     0.0600 ca         1 A13       0.402900
      6 N6           2.3980     0.0480    -0.0270 nb         1 A13      -0.246000
      7 N7           2.2580     2.3270     0.1440 nv         1 A13      -1.070900
      8 C8           2.6220    -2.3800    -0.2180 c3         1 A13      -0.155400
      9 C9          -1.9080    -0.0010     0.0030 c3         1 A13       0.263700
     10 F10         -2.4340     1.1980     0.3540 f          1 A13      -0.104667
     11 F11         -2.4070    -0.3040    -1.2180 f          1 A13      -0.104667
     12 F12         -2.4080    -0.9120     0.8690 f          1 A13      -0.104667
     13 H2          -0.1510    -2.1700    -0.1770 ha         1 A13       0.150000
     14 HN71         1.7240     3.1410     0.4430 hn         1 A13       0.509000
     15 HN72         3.2510     2.3290     0.3670 hn         1 A13       0.509000
     16 H81          2.8930    -2.5750    -1.2620 hc         1 A13       0.060033
     17 H82          3.5500    -2.2760     0.3570 hc         1 A13       0.060033
     18 H83          2.0960    -3.2630     0.1630 hc         1 A13       0.060033
@<TRIPOS>BOND
     1     1     2 ar  
     2     1     6 ar  
     3     1     8 1   
     4     2     3 ar  
     5     2    13 1   
     6     3     4 ar  
     7     3     9 1   
     8     4     5 ar  
     9     5     6 ar  
    10     5     7 1   
    11     7    14 1   
    12     7    15 1   
    13     8    16 1   
    14     8    17 1   
    15     8    18 1   
    16     9    10 1   
    17     9    11 1   
    18     9    12 1   
@<TRIPOS>SUBSTRUCTURE
     1 A13         1 TEMP              0 ****  ****    0 ROOT
