@<TRIPOS>MOLECULE
A14
   44    45     1     0     0
SMALL
bcc


@<TRIPOS>ATOM
      1 C1           3.9270   -10.4710    -5.6360 c          1 A14       0.930600
      2 C2           2.6460   -10.5940    -4.7790 c3         1 A14       0.025500
      3 C3           1.8770    -9.2760    -4.6940 c3         1 A14      -0.034400
      4 C4           2.6470    -8.1490    -4.0210 c3         1 A14      -0.060400
      5 C7           1.8100    -6.8820    -3.9120 c3         1 A14      -0.151400
      6 C10          2.5540    -5.7130    -3.3060 c          1 A14       0.670100
      7 N11          1.7670    -4.7800    -2.7290 ns         1 A14      -0.559900
      8 C12          2.2630    -3.5720    -2.1640 cy         1 A14      -0.012300
      9 C13          2.4280    -3.4740    -0.6470 c          1 A14       0.547100
     10 N14          2.9450   -11.0890    -3.4440 n8         1 A14      -0.885800
     11 O15          3.7700    -5.5990    -3.3600 o          1 A14      -0.605100
     12 C16          1.3220    -2.3390    -2.0700 cy         1 A14       0.034400
     13 S17         -0.4500    -2.6740    -2.0790 ss         1 A14      -0.395200
     14 O18          2.8820    -4.2120     0.1800 o          1 A14      -0.502100
     15 O19          4.9570   -11.0350    -5.2150 o          1 A14      -0.840300
     16 O20          3.8120    -9.8480    -6.7100 o          1 A14      -0.840300
     17 C30          0.5430    -1.9340     0.3320 c5         1 A14      -0.177700
     18 C31          0.2240    -0.4300     0.4900 c          1 A14       0.933600
     19 C32         -0.6570    -2.7330    -0.2450 c5         1 A14       0.105100
     20 C33         -0.6540    -4.1880     0.2250 c3         1 A14      -0.076100
     21 C37         -2.0190    -2.1300     0.0860 c3         1 A14      -0.076100
     22 O42          0.3930     0.2860    -0.5160 o          1 A14      -0.830300
     23 O43         -0.1810    -0.0640     1.6100 o          1 A14      -0.830300
     24 C15          1.7360    -2.1230    -0.5960 cy         1 A14      -0.144700
     25 H2           1.9990   -11.2940    -5.3380 h1         1 A14      -0.012300
     26 H3C1         0.9410    -9.4520    -4.1510 hc         1 A14       0.011200
     27 H3C2         1.5880    -8.9720    -5.7030 hc         1 A14       0.011200
     28 H141         3.6530   -11.8070    -3.5150 hn         1 A14       0.321300
     29 H142         2.1210   -11.5200    -3.0450 hn         1 A14       0.321300
     30 H4C1         3.5530    -7.9320    -4.5900 hc         1 A14       0.071700
     31 H4C2         2.9680    -8.4730    -3.0290 hc         1 A14       0.071700
     32 H7C1         0.8950    -7.0790    -3.3450 hc         1 A14       0.042200
     33 H7C2         1.4780    -6.5700    -4.9090 hc         1 A14       0.042200
     34 H11          0.7670    -4.9220    -2.6900 hn         1 A14       0.327500
     35 H12          3.2040    -3.2890    -2.6450 h1         1 A14       0.091700
     36 H16          1.5480    -1.5410    -2.7730 h1         1 A14       0.098700
     37 H15          2.4760    -1.3270    -0.4760 hc         1 A14       0.099700
     38 H30          0.7700    -2.3460     1.3200 hc         1 A14       0.064700
     39 H331         0.2570    -4.7240    -0.0330 hc         1 A14       0.035700
     40 H332        -0.7710    -4.2350     1.3100 hc         1 A14       0.035700
     41 H333        -1.4860    -4.7330    -0.2240 hc         1 A14       0.035700
     42 H371        -2.8170    -2.7380    -0.3430 hc         1 A14       0.035700
     43 H372        -2.1660    -2.1060     1.1670 hc         1 A14       0.035700
     44 H373        -2.1280    -1.1170    -0.2990 hc         1 A14       0.035700
@<TRIPOS>BOND
     1     1     2 1   
     2     1    15 1   
     3     1    16 1   
     4     2     3 1   
     5     2    10 1   
     6     2    25 1   
     7     3     4 1   
     8     3    26 1   
     9     3    27 1   
    10     4     5 1   
    11     4    30 1   
    12     4    31 1   
    13     5     6 1   
    14     5    32 1   
    15     5    33 1   
    16     6     7 1   
    17     6    11 2   
    18     7     8 1   
    19     7    34 1   
    20     8     9 1   
    21     8    12 1   
    22     8    35 1   
    23     9    14 2   
    24     9    24 1   
    25    10    28 1   
    26    10    29 1   
    27    12    13 1   
    28    12    24 1   
    29    12    36 1   
    30    13    19 1   
    31    17    18 1   
    32    17    19 1   
    33    17    24 1   
    34    17    38 1   
    35    18    22 1   
    36    18    23 1   
    37    19    20 1   
    38    19    21 1   
    39    20    39 1   
    40    20    40 1   
    41    20    41 1   
    42    21    42 1   
    43    21    43 1   
    44    21    44 1   
    45    24    37 1   
@<TRIPOS>SUBSTRUCTURE
     1 A14         1 TEMP              0 ****  ****    0 ROOT
