@<TRIPOS>MOLECULE
A14
   44    45     1     0     0
SMALL
No Charge or Current Charge


@<TRIPOS>ATOM
      1 C1           3.8970   -10.7110    -4.0700 c          1 A14       0.720000
      2 C2           2.3450   -10.3330    -4.1550 c3         1 A14       0.025500
      3 C3           2.0720    -8.9850    -4.8890 c3         1 A14      -0.034400
      4 C4           2.5820    -7.7210    -4.1500 c3         1 A14      -0.060400
      5 C7           2.3060    -6.4130    -4.9310 c3         1 A14      -0.151400
      6 C10          2.8090    -5.1840    -4.1650 c          1 A14       0.603100
      7 N11          1.8230    -4.3970    -3.6140 ns         1 A14      -0.492900
      8 C12          2.0780    -3.2040    -2.8260 cy         1 A14      -0.012300
      9 C13          2.5010    -3.3420    -1.3320 c          1 A14       0.547100
     10 N14          1.5570   -10.3890    -2.8710 n8         1 A14      -0.996200
     11 O15          3.9950    -4.9020    -4.0750 o          1 A14      -0.605100
     12 C16          0.8630    -2.3890    -2.2680 cy         1 A14       0.082300
     13 S17         -0.7120    -3.2690    -1.8940 ss         1 A14      -0.491000
     14 O18          3.2560    -4.0820    -0.7120 o          1 A14      -0.502100
     15 O19          4.2590   -11.4740    -3.1800 o          1 A14      -0.735000
     16 O20          4.6810   -10.2290    -4.8770 o          1 A14      -0.735000
     17 C30          0.7090    -2.2230     0.3250 c5         1 A14      -0.177700
     18 C31          0.1530    -0.8150     0.6840 c          1 A14       0.723000
     19 C32         -0.4430    -3.2690    -0.0310 c5         1 A14       0.153000
     20 C33         -0.0560    -4.7170     0.3740 c3         1 A14      -0.076100
     21 C37         -1.8100    -2.9720     0.6450 c3         1 A14      -0.076100
     22 O42         -0.4200    -0.1440    -0.1620 o          1 A14      -0.725000
     23 O43          0.3800    -0.3750     1.8010 o          1 A14      -0.725000
     24 C15          1.6110    -2.1280    -0.9450 cy         1 A14      -0.144700
     25 H2           1.9040   -11.1180    -4.7840 h1         1 A14      -0.012300
     26 H3C1         0.9910    -8.8840    -5.0500 hc         1 A14       0.011200
     27 H3C2         2.5190    -9.0230    -5.8900 hc         1 A14       0.011200
     28 H141         1.7150   -11.3040    -2.4320 hn         1 A14       0.376500
     29 H142         0.5540   -10.3820    -3.0860 hn         1 A14       0.376500
     30 H4C1         3.6600    -7.8110    -3.9710 hc         1 A14       0.071700
     31 H4C2         2.1030    -7.6560    -3.1650 hc         1 A14       0.071700
     32 H7C1         1.2250    -6.3330    -5.1020 hc         1 A14       0.042200
     33 H7C2         2.8290    -6.4670    -5.8930 hc         1 A14       0.042200
     34 H11          0.8690    -4.7150    -3.7460 hn         1 A14       0.327500
     35 H12          2.7870    -2.5730    -3.3750 h1         1 A14       0.091700
     36 H16          0.6660    -1.4740    -2.8410 h1         1 A14       0.098700
     37 H15          2.2430    -1.2330    -0.9500 hc         1 A14       0.099700
     38 H30          1.2680    -2.5730     1.2000 hc         1 A14       0.064700
     39 H331         0.8420    -5.0680    -0.1430 hc         1 A14       0.035700
     40 H332         0.1330    -4.7900     1.4520 hc         1 A14       0.035700
     41 H333        -0.8550    -5.4280     0.1310 hc         1 A14       0.035700
     42 H371        -2.5430    -3.7580     0.4260 hc         1 A14       0.035700
     43 H372        -1.7080    -2.9090     1.7350 hc         1 A14       0.035700
     44 H373        -2.2470    -2.0320     0.2920 hc         1 A14       0.035700
@<TRIPOS>BOND
     1     1     2 1   
     2     1    15 1   
     3     1    16 1   
     4     2     3 1   
     5     2    10 1   
     6     2    25 1   
     7     3     4 1   
     8     3    26 1   
     9     3    27 1   
    10     4     5 1   
    11     4    30 1   
    12     4    31 1   
    13     5     6 1   
    14     5    32 1   
    15     5    33 1   
    16     6     7 1   
    17     6    11 2   
    18     7     8 1   
    19     7    34 1   
    20     8     9 1   
    21     8    12 1   
    22     8    35 1   
    23     9    14 2   
    24     9    24 1   
    25    10    28 1   
    26    10    29 1   
    27    12    13 1   
    28    12    24 1   
    29    12    36 1   
    30    13    19 1   
    31    17    18 1   
    32    17    19 1   
    33    17    24 1   
    34    17    38 1   
    35    18    22 1   
    36    18    23 1   
    37    19    20 1   
    38    19    21 1   
    39    20    39 1   
    40    20    40 1   
    41    20    41 1   
    42    21    42 1   
    43    21    43 1   
    44    21    44 1   
    45    24    37 1   
@<TRIPOS>SUBSTRUCTURE
     1 A14         1 TEMP              0 ****  ****    0 ROOT
