@<TRIPOS>MOLECULE
A15
   44    48     1     0     0
SMALL
bcc


@<TRIPOS>ATOM
      1 C1          -1.7480     1.9800    -0.5290 c          1 A15       0.763200
      2 C2          -2.4190     0.9430    -1.3300 ca         1 A15      -0.183600
      3 C3          -3.3950     1.2890    -2.2330 ca         1 A15      -0.042000
      4 C4          -4.1490     0.2920    -2.8730 ca         1 A15      -0.143000
      5 C5          -3.9480    -1.0300    -2.5710 ca         1 A15      -0.082000
      6 C6          -2.9530    -1.4200    -1.6480 ca         1 A15      -0.050000
      7 C7          -2.7210    -2.7720    -1.3060 ca         1 A15      -0.097000
      8 C8          -1.7370    -3.0970    -0.4140 ca         1 A15      -0.133000
      9 C9          -0.9160    -2.0960     0.1450 ca         1 A15      -0.086000
     10 C10         -1.1060    -0.7790    -0.1780 ca         1 A15      -0.119300
     11 C11         -2.1550    -0.4180    -1.0490 ca         1 A15       0.004000
     12 C12         -0.1520     0.3180     0.2350 c6         1 A15       0.350700
     13 C13          0.9200     0.5440    -0.8260 ca         1 A15      -0.139800
     14 C14          1.1540    -0.3540    -1.8540 ca         1 A15      -0.047500
     15 C15          2.1480    -0.1060    -2.7880 ca         1 A15      -0.084100
     16 C16          2.9340     1.0420    -2.7300 ca         1 A15       0.169100
     17 C17          2.6940     1.9410    -1.6900 ca         1 A15      -0.169000
     18 C18          1.7090     1.6950    -0.7580 ca         1 A15      -0.061500
     19 C19          0.4450     0.0400     1.6020 ca         1 A15      -0.139800
     20 C20         -0.3520     0.1910     2.7320 ca         1 A15      -0.047500
     21 C21          0.1520    -0.1040     3.9830 ca         1 A15      -0.084100
     22 C22          1.4580    -0.5700     4.1550 ca         1 A15       0.169100
     23 C23          2.2440    -0.7290     3.0190 ca         1 A15      -0.169000
     24 C24          1.7440    -0.4250     1.7640 ca         1 A15      -0.061500
     25 O1          -0.8600     1.5660     0.3830 os         1 A15      -0.424900
     26 O2          -2.0130     3.1540    -0.5790 o          1 A15      -0.567500
     27 O3           3.8990     1.3330    -3.6080 oh         1 A15      -0.484600
     28 O4           1.9880    -0.8690     5.3470 oh         1 A15      -0.484600
     29 CL1          2.4230    -1.2430    -4.0680 cl         1 A15      -0.111900
     30 CL2         -0.8480     0.1050     5.3850 cl         1 A15      -0.111900
     31 H3          -3.6030     2.3310    -2.4370 ha         1 A15       0.157000
     32 H4          -4.9120     0.5760    -3.5850 ha         1 A15       0.141000
     33 H5          -4.5560    -1.7930    -3.0410 ha         1 A15       0.136000
     34 H7          -3.3350    -3.5430    -1.7540 ha         1 A15       0.137000
     35 H8          -1.5660    -4.1300    -0.1430 ha         1 A15       0.139000
     36 H9          -0.1160    -2.3840     0.8150 ha         1 A15       0.145000
     37 H14          0.5720    -1.2610    -1.9470 ha         1 A15       0.157500
     38 H17          3.2970     2.8380    -1.6250 ha         1 A15       0.155000
     39 H18          1.5610     2.4130     0.0380 ha         1 A15       0.152000
     40 H20         -1.3750     0.5330     2.6480 ha         1 A15       0.157500
     41 H23          3.2580    -1.0920     3.1280 ha         1 A15       0.155000
     42 H24          2.3910    -0.5600     0.9070 ha         1 A15       0.152000
     43 HO3          3.9870     0.6460    -4.2820 ho         1 A15       0.442500
     44 HO4          1.3540    -0.7250     6.0610 ho         1 A15       0.442500
@<TRIPOS>BOND
     1     1     2 1   
     2     1    25 1   
     3     1    26 2   
     4     2     3 ar  
     5     2    11 ar  
     6     3     4 ar  
     7     3    31 1   
     8     4     5 ar  
     9     4    32 1   
    10     5     6 ar  
    11     5    33 1   
    12     6     7 ar  
    13     6    11 ar  
    14     7     8 ar  
    15     7    34 1   
    16     8     9 ar  
    17     8    35 1   
    18     9    10 ar  
    19     9    36 1   
    20    10    11 ar  
    21    10    12 1   
    22    12    13 1   
    23    12    19 1   
    24    12    25 1   
    25    13    14 ar  
    26    13    18 ar  
    27    14    15 ar  
    28    14    37 1   
    29    15    16 ar  
    30    15    29 1   
    31    16    17 ar  
    32    16    27 1   
    33    17    18 ar  
    34    17    38 1   
    35    18    39 1   
    36    19    20 ar  
    37    19    24 ar  
    38    20    21 ar  
    39    20    40 1   
    40    21    22 ar  
    41    21    30 1   
    42    22    23 ar  
    43    22    28 1   
    44    23    24 ar  
    45    23    41 1   
    46    24    42 1   
    47    27    43 1   
    48    28    44 1   
@<TRIPOS>SUBSTRUCTURE
     1 A15         1 TEMP              0 ****  ****    0 ROOT
