@<TRIPOS>MOLECULE
A15
   44    48     1     0     0
SMALL
No Charge or Current Charge


@<TRIPOS>ATOM
      1 C1          -1.7450     2.0080    -0.5890 c          1 A15       0.687700
      2 C2          -2.4770     0.9210    -1.3290 ca         1 A15      -0.183600
      3 C3          -3.5300     1.2510    -2.2110 ca         1 A15      -0.024000
      4 C4          -4.3060     0.2380    -2.8000 ca         1 A15      -0.125000
      5 C5          -4.0540    -1.1090    -2.4980 ca         1 A15      -0.064000
      6 C6          -3.0050    -1.4470    -1.6240 ca         1 A15      -0.050000
      7 C7          -2.7520    -2.7950    -1.3150 ca         1 A15      -0.079000
      8 C8          -1.6930    -3.1290    -0.4570 ca         1 A15      -0.115000
      9 C9          -0.8700    -2.1220     0.0730 ca         1 A15      -0.068000
     10 C10         -1.1170    -0.7630    -0.2280 ca         1 A15      -0.119300
     11 C11         -2.2020    -0.4310    -1.0590 ca         1 A15       0.004000
     12 C12         -0.1300     0.3350     0.2070 c6         1 A15       0.373900
     13 C13          0.9850     0.5760    -0.8420 ca         1 A15      -0.139800
     14 C14          1.1680    -0.2740    -1.9600 ca         1 A15      -0.029500
     15 C15          2.1920    -0.0190    -2.8890 ca         1 A15       0.007500
     16 C16          3.0480     1.0850    -2.7150 ca         1 A15       0.169100
     17 C17          2.8760     1.9310    -1.6110 ca         1 A15      -0.151000
     18 C18          1.8520     1.6800    -0.6810 ca         1 A15      -0.043500
     19 C19          0.4450     0.0310     1.6090 ca         1 A15      -0.139800
     20 C20         -0.3570     0.2420     2.7530 ca         1 A15      -0.029500
     21 C21          0.1360    -0.0450     4.0380 ca         1 A15       0.007500
     22 C22          1.4380    -0.5560     4.1950 ca         1 A15       0.169100
     23 C23          2.2380    -0.7830     3.0660 ca         1 A15      -0.151000
     24 C24          1.7480    -0.4970     1.7800 ca         1 A15      -0.043500
     25 O1          -0.8120     1.5960     0.3210 os         1 A15      -0.448100
     26 O2          -2.0080     3.1940    -0.7330 o          1 A15      -0.492000
     27 O3           4.0470     1.3430    -3.6100 oh         1 A15      -0.523600
     28 O4           1.9320    -0.8410     5.4360 oh         1 A15      -0.523600
     29 Cl1          2.3890    -1.0990    -4.2700 cl         1 A15      -0.203500
     30 Cl2         -0.8960     0.2370     5.4410 cl         1 A15      -0.203500
     31 H3          -3.7650     2.2920    -2.4260 ha         1 A15       0.139000
     32 H4          -5.1180     0.5010    -3.4740 ha         1 A15       0.123000
     33 H5          -4.6710    -1.8860    -2.9430 ha         1 A15       0.118000
     34 H7          -3.3710    -3.5830    -1.7390 ha         1 A15       0.119000
     35 H8          -1.4930    -4.1730    -0.2230 ha         1 A15       0.121000
     36 H9          -0.0250    -2.4100     0.6940 ha         1 A15       0.127000
     37 H14          0.5280    -1.1350    -2.1270 ha         1 A15       0.139500
     38 H17          3.5360     2.7830    -1.4740 ha         1 A15       0.137000
     39 H18          1.7350     2.3460     0.1720 ha         1 A15       0.134000
     40 H20         -1.3690     0.6270     2.6490 ha         1 A15       0.139500
     41 H23          3.2400    -1.1850     3.1860 ha         1 A15       0.137000
     42 H24          2.3860    -0.6970     0.9220 ha         1 A15       0.134000
     43 HO3          4.0100     0.6500    -4.3060 ho         1 A15       0.481500
     44 HO4          1.2340    -0.6210     6.0920 ho         1 A15       0.481500
@<TRIPOS>BOND
     1     1     2 1   
     2     1    25 1   
     3     1    26 2   
     4     2     3 ar  
     5     2    11 ar  
     6     3     4 ar  
     7     3    31 1   
     8     4     5 ar  
     9     4    32 1   
    10     5     6 ar  
    11     5    33 1   
    12     6     7 ar  
    13     6    11 ar  
    14     7     8 ar  
    15     7    34 1   
    16     8     9 ar  
    17     8    35 1   
    18     9    10 ar  
    19     9    36 1   
    20    10    11 ar  
    21    10    12 1   
    22    12    13 1   
    23    12    19 1   
    24    12    25 1   
    25    13    14 ar  
    26    13    18 ar  
    27    14    15 ar  
    28    14    37 1   
    29    15    16 ar  
    30    15    29 1   
    31    16    17 ar  
    32    16    27 1   
    33    17    18 ar  
    34    17    38 1   
    35    18    39 1   
    36    19    20 ar  
    37    19    24 ar  
    38    20    21 ar  
    39    20    40 1   
    40    21    22 ar  
    41    21    30 1   
    42    22    23 ar  
    43    22    28 1   
    44    23    24 ar  
    45    23    41 1   
    46    24    42 1   
    47    27    43 1   
    48    28    44 1   
@<TRIPOS>SUBSTRUCTURE
     1 A15         1 TEMP              0 ****  ****    0 ROOT
