@<TRIPOS>MOLECULE
A16
   68    70     1     0     0
SMALL
abcg2


@<TRIPOS>ATOM
      1 C1A        -58.2110    73.5280    40.0740 c6         1 A16       0.163500
      2 C1B        -62.5350    75.0480    37.2790 c6         1 A16       0.385300
      3 C1C        -63.7180    75.0820    32.1060 c6         1 A16       0.398300
      4 C2A        -56.6930    73.3010    39.8200 c6         1 A16       0.135300
      5 C2B        -61.5810    76.0080    37.9840 c6         1 A16       0.110300
      6 C2C        -63.9270    76.3120    32.9860 c6         1 A16       0.113300
      7 O2A        -56.3080    73.5310    38.4600 oh         1 A16      -0.732000
      8 O2B        -61.5160    77.2480    37.2600 oh         1 A16      -0.737000
      9 O2C        -63.7060    77.4750    32.1990 oh         1 A16      -0.707000
     10 C3A        -56.2830    71.8810    40.1830 c6         1 A16       0.132300
     11 C3B        -60.1940    75.4000    38.1050 c6         1 A16       0.124300
     12 C3C        -62.9780    76.2650    34.1710 c6         1 A16       0.120300
     13 O3A        -54.9240    71.6250    39.8340 oh         1 A16      -0.678000
     14 O3B        -59.3340    76.2560    38.8570 oh         1 A16      -0.672000
     15 O3C        -63.2560    77.3930    34.9910 oh         1 A16      -0.750000
     16 C4A        -56.4140    71.6740    41.6870 c6         1 A16       0.176300
     17 C4B        -60.2610    74.0320    38.7880 c6         1 A16       0.158500
     18 C4C        -63.1240    74.9540    34.9300 c6         1 A16       0.123300
     19 N4B        -58.9620    73.3640    38.8260 n7         1 A16      -0.869400
     20 O4A        -56.3400    70.2820    42.0180 oh         1 A16      -0.723000
     21 O4C        -62.1200    74.9020    35.9400 os         1 A16      -0.490000
     22 C5A        -57.7310    72.2420    42.2510 c6         1 A16      -0.062700
     23 C5B        -61.2910    73.1450    38.0660 c6         1 A16       0.177300
     24 C5C        -62.9470    73.7760    33.9720 c6         1 A16       0.138300
     25 O5B        -62.5650    73.8170    37.9550 os         1 A16      -0.462000
     26 O5C        -63.8770    73.9050    32.8920 os         1 A16      -0.509000
     27 C6A        -57.4490    73.4450    43.1460 c3         1 A16       0.164600
     28 C6B        -61.5710    71.8430    38.7840 c3         1 A16      -0.082100
     29 C6C        -63.2070    72.4250    34.6130 c3         1 A16       0.168600
     30 O6A        -58.6790    73.8790    43.7320 oh         1 A16      -0.666000
     31 O6C        -64.5250    72.3110    35.1410 oh         1 A16      -0.718000
     32 C7A        -58.7340    72.5430    41.1350 c6         1 A16      -0.068400
     33 OXT        -64.6130    75.0110    31.0440 oh         1 A16      -0.676000
     34 H1A        -58.3220    74.5490    40.4530 h1         1 A16       0.044700
     35 H2A        -56.1290    73.9870    40.4560 h1         1 A16       0.039700
     36 H4B        -58.3830    73.6820    38.0580 hn         1 A16       0.436000
     37 H7A1       -59.6590    72.9240    41.5660 hc         1 A16       0.064200
     38 H7A2       -58.9850    71.6080    40.6320 hc         1 A16       0.064200
     39 H1B        -63.5550    75.4330    37.3160 h2         1 A16       0.081700
     40 H2B        -61.9740    76.1930    38.9860 h1         1 A16       0.065700
     41 H1C        -62.7150    75.0980    31.6660 h2         1 A16       0.082700
     42 HOT        -65.5110    75.1500    31.3780 ho         1 A16       0.513000
     43 HA         -56.0390    74.4520    38.3630 ho         1 A16       0.511000
     44 H3A        -56.9340    71.1700    39.6600 h1         1 A16       0.072700
     45 HB         -61.7490    77.9700    37.8560 ho         1 A16       0.515000
     46 H3B        -59.7830    75.2660    37.0960 h1         1 A16       0.061700
     47 HC         -63.6570    78.2230    32.8100 ho         1 A16       0.524000
     48 H3C        -61.9490    76.3240    33.7930 h1         1 A16       0.055700
     49 HD         -54.8010    71.9570    38.9340 ho         1 A16       0.464000
     50 H4A        -55.5640    72.1920    42.1480 h1         1 A16       0.038700
     51 HE         -59.2660    77.0910    38.3760 ho         1 A16       0.451000
     52 HF         -60.6140    74.1820    39.8120 h1         1 A16       0.072700
     53 HG         -62.6080    77.4050    35.7220 ho         1 A16       0.541000
     54 H4C        -64.1160    74.8970    35.3840 h1         1 A16       0.074700
     55 HH         -55.5130    69.9380    41.6560 ho         1 A16       0.518000
     56 H5B        -60.9170    72.9400    37.0580 h1         1 A16       0.052700
     57 H5C        -61.9200    73.7830    33.5830 h1         1 A16       0.057700
     58 H6A1       -56.7390    73.1500    43.9260 h1         1 A16       0.021200
     59 H6A2       -56.9960    74.2600    42.5720 h1         1 A16       0.021200
     60 H6B1       -62.3080    71.2620    38.2280 hc         1 A16       0.051367
     61 H6B2       -60.6580    71.2580    38.8740 hc         1 A16       0.051367
     62 H6B3       -61.9610    72.0380    39.7860 hc         1 A16       0.051367
     63 H6C1       -63.0190    71.6440    33.8690 h1         1 A16       0.060200
     64 H6C2       -62.5210    72.2840    35.4460 h1         1 A16       0.060200
     65 H6A        -58.5010    74.6680    44.2580 ho         1 A16       0.443000
     66 H6C        -65.1460    72.4660    34.4170 ho         1 A16       0.510000
     67 H5A        -58.1560    71.4630    42.8890 hc         1 A16       0.090700
     68 H2C        -64.9610    76.2910    33.3560 h1         1 A16       0.050700
@<TRIPOS>BOND
     1     1     4 1   
     2     1    19 1   
     3     1    32 1   
     4     1    34 1   
     5     2     5 1   
     6     2    21 1   
     7     2    25 1   
     8     2    39 1   
     9     3     6 1   
    10     3    26 1   
    11     3    33 1   
    12     3    41 1   
    13     4     7 1   
    14     4    10 1   
    15     4    35 1   
    16     5     8 1   
    17     5    11 1   
    18     5    40 1   
    19     6     9 1   
    20     6    12 1   
    21     6    68 1   
    22     7    43 1   
    23     8    45 1   
    24     9    47 1   
    25    10    13 1   
    26    10    16 1   
    27    10    44 1   
    28    11    14 1   
    29    11    17 1   
    30    11    46 1   
    31    12    15 1   
    32    12    18 1   
    33    12    48 1   
    34    13    49 1   
    35    14    51 1   
    36    15    53 1   
    37    16    20 1   
    38    16    22 1   
    39    16    50 1   
    40    17    19 1   
    41    17    23 1   
    42    17    52 1   
    43    18    21 1   
    44    18    24 1   
    45    18    54 1   
    46    19    36 1   
    47    20    55 1   
    48    22    27 1   
    49    22    32 1   
    50    22    67 1   
    51    23    25 1   
    52    23    28 1   
    53    23    56 1   
    54    24    26 1   
    55    24    29 1   
    56    24    57 1   
    57    27    30 1   
    58    27    58 1   
    59    27    59 1   
    60    28    60 1   
    61    28    61 1   
    62    28    62 1   
    63    29    31 1   
    64    29    63 1   
    65    29    64 1   
    66    30    65 1   
    67    31    66 1   
    68    32    37 1   
    69    32    38 1   
    70    33    42 1   
@<TRIPOS>SUBSTRUCTURE
     1 A16         1 TEMP              0 ****  ****    0 ROOT
