@<TRIPOS>MOLECULE
A16
   68    70     1     0     0
SMALL
No Charge or Current Charge


@<TRIPOS>ATOM
      1 C1A        -58.4200    73.2440    40.3330 c6         1 A16       0.163500
      2 C1B        -62.3840    75.2070    37.1490 c6         1 A16       0.385300
      3 C1C        -63.9090    75.2270    32.0120 c6         1 A16       0.398300
      4 C2A        -56.9180    73.5750    39.9910 c6         1 A16       0.135300
      5 C2B        -61.1600    76.0480    37.6530 c6         1 A16       0.110300
      6 C2C        -63.9120    76.4700    32.9730 c6         1 A16       0.113300
      7 O2A        -56.7790    74.0660    38.6400 oh         1 A16      -0.732000
      8 O2B        -60.8210    77.1280    36.7390 oh         1 A16      -0.737000
      9 O2C        -63.6220    77.7210    32.3130 oh         1 A16      -0.707000
     10 C3A        -56.0170    72.3290    40.2050 c6         1 A16       0.132300
     11 C3B        -59.9450    75.0910    37.8660 c6         1 A16       0.124300
     12 C3C        -62.8520    76.2410    34.0850 c6         1 A16       0.120300
     13 O3A        -54.6840    72.5990    39.7390 oh         1 A16      -0.678000
     14 O3B        -58.7920    75.8280    38.3260 oh         1 A16      -0.672000
     15 O3C        -62.8030    77.3810    34.9670 oh         1 A16      -0.750000
     16 C4A        -56.0110    71.9210    41.7170 c6         1 A16       0.176300
     17 C4B        -60.3430    73.9390    38.8550 c6         1 A16       0.158500
     18 C4C        -63.1420    74.8980    34.8320 c6         1 A16       0.123300
     19 N4B        -59.2190    72.9790    39.1070 n7         1 A16      -0.869400
     20 O4A        -55.4160    70.6230    41.8650 oh         1 A16      -0.723000
     21 O4C        -62.1440    74.6280    35.8460 os         1 A16      -0.490000
     22 C5A        -57.4340    71.9720    42.3770 c6         1 A16      -0.062700
     23 C5B        -61.6070    73.2070    38.2930 c6         1 A16       0.177300
     24 C5C        -63.1910    73.7400    33.7880 c6         1 A16       0.138300
     25 O5B        -62.6880    74.1450    38.0740 os         1 A16      -0.462000
     26 O5C        -64.1780    74.0330    32.7590 os         1 A16      -0.509000
     27 C6A        -57.5360    73.1430    43.4030 c3         1 A16       0.164600
     28 C6B        -62.1610    72.1280    39.2580 c3         1 A16      -0.082100
     29 C6C        -63.5950    72.3740    34.4240 c3         1 A16       0.168600
     30 O6A        -58.7810    73.1370    44.1110 oh         1 A16      -0.666000
     31 O6C        -65.0170    72.2890    34.6150 oh         1 A16      -0.718000
     32 C7A        -58.5590    72.0260    41.2970 c6         1 A16      -0.068400
     33 OXT        -64.9620    75.2790    31.0690 oh         1 A16      -0.676000
     34 H1A        -58.8240    74.1260    40.8540 h1         1 A16       0.044700
     35 H2A        -56.5810    74.3520    40.6940 h1         1 A16       0.039700
     36 H4B        -58.5740    72.9890    38.3060 hn         1 A16       0.436000
     37 H7A1       -59.5500    72.0450    41.7690 hc         1 A16       0.064200
     38 H7A2       -58.5330    71.0930    40.7180 hc         1 A16       0.064200
     39 H1B        -63.2530    75.8810    37.1020 h2         1 A16       0.081700
     40 H2B        -61.4410    76.4650    38.6320 h1         1 A16       0.065700
     41 H1C        -62.9360    75.1420    31.5010 h2         1 A16       0.082700
     42 HOT        -65.3160    74.3650    31.0950 ho         1 A16       0.513000
     43 HA         -57.5080    74.7460    38.5390 ho         1 A16       0.511000
     44 H3A        -56.4490    71.5020    39.6200 h1         1 A16       0.072700
     45 HB         -60.5460    77.9010    37.2930 ho         1 A16       0.515000
     46 H3B        -59.7110    74.6290    36.8950 h1         1 A16       0.061700
     47 HC         -63.2940    78.2960    33.0490 ho         1 A16       0.524000
     48 H3C        -61.8730    76.1290    33.5920 h1         1 A16       0.055700
     49 HD         -54.8260    73.2290    38.9920 ho         1 A16       0.464000
     50 H4A        -55.3760    72.6520    42.2430 h1         1 A16       0.038700
     51 HE         -58.6960    76.5850    37.7040 ho         1 A16       0.451000
     52 HF         -60.6530    74.3930    39.8080 h1         1 A16       0.072700
     53 HG         -62.0160    77.2330    35.5740 ho         1 A16       0.541000
     54 H4C        -64.1320    74.9550    35.3100 h1         1 A16       0.074700
     55 HH         -54.6040    70.6470    41.3040 ho         1 A16       0.518000
     56 H5B        -61.3570    72.7170    37.3400 h1         1 A16       0.052700
     57 H5C        -62.2010    73.6280    33.3210 h1         1 A16       0.057700
     58 H6A1       -56.7070    73.0470    44.1180 h1         1 A16       0.021200
     59 H6A2       -57.4050    74.0980    42.8780 h1         1 A16       0.021200
     60 H6B1       -63.0730    71.6720    38.8550 hc         1 A16       0.051367
     61 H6B2       -61.4330    71.3230    39.4140 hc         1 A16       0.051367
     62 H6B3       -62.4010    72.5560    40.2380 hc         1 A16       0.051367
     63 H6C1       -63.2590    71.5790    33.7450 h1         1 A16       0.060200
     64 H6C2       -63.0590    72.2360    35.3740 h1         1 A16       0.060200
     65 H6A        -58.7450    73.8700    44.7640 ho         1 A16       0.443000
     66 H6C        -65.3880    72.8180    33.8670 ho         1 A16       0.510000
     67 H5A        -57.5780    71.0590    42.9710 hc         1 A16       0.090700
     68 H2C        -64.9020    76.5240    33.4510 h1         1 A16       0.050700
@<TRIPOS>BOND
     1     1     4 1   
     2     1    19 1   
     3     1    32 1   
     4     1    34 1   
     5     2     5 1   
     6     2    21 1   
     7     2    25 1   
     8     2    39 1   
     9     3     6 1   
    10     3    26 1   
    11     3    33 1   
    12     3    41 1   
    13     4     7 1   
    14     4    10 1   
    15     4    35 1   
    16     5     8 1   
    17     5    11 1   
    18     5    40 1   
    19     6     9 1   
    20     6    12 1   
    21     6    68 1   
    22     7    43 1   
    23     8    45 1   
    24     9    47 1   
    25    10    13 1   
    26    10    16 1   
    27    10    44 1   
    28    11    14 1   
    29    11    17 1   
    30    11    46 1   
    31    12    15 1   
    32    12    18 1   
    33    12    48 1   
    34    13    49 1   
    35    14    51 1   
    36    15    53 1   
    37    16    20 1   
    38    16    22 1   
    39    16    50 1   
    40    17    19 1   
    41    17    23 1   
    42    17    52 1   
    43    18    21 1   
    44    18    24 1   
    45    18    54 1   
    46    19    36 1   
    47    20    55 1   
    48    22    27 1   
    49    22    32 1   
    50    22    67 1   
    51    23    25 1   
    52    23    28 1   
    53    23    56 1   
    54    24    26 1   
    55    24    29 1   
    56    24    57 1   
    57    27    30 1   
    58    27    58 1   
    59    27    59 1   
    60    28    60 1   
    61    28    61 1   
    62    28    62 1   
    63    29    31 1   
    64    29    63 1   
    65    29    64 1   
    66    30    65 1   
    67    31    66 1   
    68    32    37 1   
    69    32    38 1   
    70    33    42 1   
@<TRIPOS>SUBSTRUCTURE
     1 A16         1 TEMP              0 ****  ****    0 ROOT
