@<TRIPOS>MOLECULE
A17
   53    57     1     0     0
SMALL
No Charge or Current Charge


@<TRIPOS>ATOM
      1 C1           1.9010     1.5370     0.8890 ca         1 A17      -0.074000
      2 C2           2.5690     0.3920     0.3980 ca         1 A17      -0.058000
      3 C3           1.8540    -0.5360    -0.3880 ca         1 A17      -0.079000
      4 C4           0.4930    -0.3220    -0.6680 ca         1 A17      -0.090000
      5 C10          2.6360     2.4560     1.6640 ca         1 A17       0.303900
      6 C12         -2.5570     0.0070    -0.1440 ca         1 A17      -0.044000
      7 C13         -3.9420     0.1370    -0.3900 ca         1 A17      -0.155600
      8 C16         -2.1230     2.2060    -1.1110 ca         1 A17      -0.035300
      9 O19         -4.4720    -2.0140     0.5390 o          1 A17      -0.590100
     10 C15         -3.5020     2.3420    -1.3540 ca         1 A17      -0.124000
     11 C5          -0.1860     0.8210    -0.1840 cp         1 A17      -0.018000
     12 C6           0.5380     1.7450     0.6060 ca         1 A17      -0.077000
     13 N7           3.9500     2.2610     1.9350 nb         1 A17      -0.321000
     14 N8           4.5890     1.1690     1.4670 nb         1 A17      -0.322000
     15 C9           3.9500     0.2350     0.7160 cp         1 A17       0.376500
     16 C11         -1.6350     1.0260    -0.4850 cp         1 A17      -0.057000
     17 C14         -4.4040     1.3260    -1.0000 ca         1 A17      -0.077000
     18 C18         -4.8760    -0.9880     0.0060 c          1 A17       0.612700
     19 C20         -7.2480    -1.7570     0.0450 cx         1 A17       0.044700
     20 C21         -8.6800    -1.2890    -0.0320 cx         1 A17      -0.131900
     21 C22         -8.0410    -1.5470     1.3110 cx         1 A17      -0.131900
     22 C23          4.7610    -0.9440     0.2780 cp         1 A17      -0.153500
     23 C24          4.4560    -2.2300     0.7920 ca         1 A17      -0.088000
     24 C25          5.1970    -3.3590     0.4090 ca         1 A17      -0.117000
     25 C26          6.2590    -3.2230    -0.4960 ca         1 A17      -0.097000
     26 C27          6.5770    -1.9590    -1.0190 ca         1 A17      -0.115000
     27 C28          5.8390    -0.8180    -0.6450 ca         1 A17      -0.040300
     28 C29          6.2110     0.5270    -1.2600 c3         1 A17      -0.052800
     29 N30         -6.2170    -0.8040    -0.2630 ns         1 A17      -0.480900
     30 H3           2.3430    -1.4190    -0.7900 ha         1 A17       0.134000
     31 H4          -0.0440    -1.0460    -1.2780 ha         1 A17       0.124000
     32 H6           0.0320     2.6210     1.0050 ha         1 A17       0.126000
     33 H29          6.7450     1.1550    -0.5370 hc         1 A17       0.048367
     34 H20         -7.0260    -2.7820    -0.2610 h1         1 A17       0.085700
     35 H21         -8.8700    -0.2550    -0.3130 hc         1 A17       0.077950
     36 H24          3.6370    -2.3470     1.4990 ha         1 A17       0.118000
     37 H22         -8.3550    -2.4310     1.8610 hc         1 A17       0.077950
     38 H10          2.1780     3.3560     2.0710 h4         1 A17       0.026100
     39 H12         -2.1800    -0.8950     0.3320 ha         1 A17       0.140000
     40 H14         -5.4590     1.4820    -1.2110 ha         1 A17       0.114000
     41 H15         -3.8820     3.2430    -1.8300 ha         1 A17       0.117000
     42 H17         -0.9830     4.0200    -0.7320 hc         1 A17       0.049033
     43 H17A        -0.2430     2.9460    -1.9360 hc         1 A17       0.049033
     44 H17B        -1.6440     3.9220    -2.3690 hc         1 A17       0.049033
     45 H21A        -9.4240    -1.9990    -0.3850 hc         1 A17       0.077950
     46 H22A        -7.7950    -0.6880     1.9300 hc         1 A17       0.077950
     47 H25          4.9490    -4.3370     0.8150 ha         1 A17       0.116000
     48 H26          6.8360    -4.0960    -0.7940 ha         1 A17       0.114000
     49 H27          7.4010    -1.8690    -1.7230 ha         1 A17       0.113000
     50 H29A         6.8600     0.4080    -2.1360 hc         1 A17       0.048367
     51 H29B         5.3210     1.0750    -1.5900 hc         1 A17       0.048367
     52 HN30        -6.4690     0.0670    -0.7110 hn         1 A17       0.318500
     53 C17         -1.1970     3.3330    -1.5590 c3         1 A17      -0.054800
@<TRIPOS>BOND
     1     1     2 ar  
     2     1     5 ar  
     3     1    12 ar  
     4     2     3 ar  
     5     2    15 ar  
     6     3     4 ar  
     7     3    30 1   
     8     4    11 ar  
     9     4    31 1   
    10     5    13 ar  
    11     5    38 1   
    12     6     7 ar  
    13     6    16 ar  
    14     6    39 1   
    15     7    17 ar  
    16     7    18 1   
    17     8    10 ar  
    18     8    16 ar  
    19     8    53 1   
    20     9    18 2   
    21    10    17 ar  
    22    10    41 1   
    23    11    12 ar  
    24    11    16 1   
    25    12    32 1   
    26    13    14 ar  
    27    14    15 ar  
    28    15    22 1   
    29    17    40 1   
    30    18    29 1   
    31    19    20 1   
    32    19    21 1   
    33    19    29 1   
    34    19    34 1   
    35    20    21 1   
    36    20    35 1   
    37    20    45 1   
    38    21    37 1   
    39    21    46 1   
    40    22    23 ar  
    41    22    27 ar  
    42    23    24 ar  
    43    23    36 1   
    44    24    25 ar  
    45    24    47 1   
    46    25    26 ar  
    47    25    48 1   
    48    26    27 ar  
    49    26    49 1   
    50    27    28 1   
    51    28    33 1   
    52    28    50 1   
    53    28    51 1   
    54    29    52 1   
    55    42    53 1   
    56    43    53 1   
    57    44    53 1   
@<TRIPOS>SUBSTRUCTURE
     1 A17         1 TEMP              0 ****  ****    0 ROOT
