@<TRIPOS>MOLECULE
A17
   53    57     1     0     0
SMALL
bcc


@<TRIPOS>ATOM
      1 C1           1.9310     1.5910     0.8930 ca         1 A17      -0.139300
      2 C2           2.5280     0.4100     0.4230 ca         1 A17      -0.123300
      3 C3           1.7500    -0.5010    -0.3140 ca         1 A17      -0.097000
      4 C4           0.4300    -0.2260    -0.5540 ca         1 A17      -0.108000
      5 C10          2.7710     2.4750     1.6130 ca         1 A17       0.369200
      6 C12         -2.5210     0.1990     0.0060 ca         1 A17      -0.062000
      7 C13         -3.8840     0.3340    -0.2290 ca         1 A17      -0.155600
      8 C16         -2.0790     2.3670    -0.9680 ca         1 A17      -0.035300
      9 O19         -4.4650    -1.5500     1.0880 o          1 A17      -0.590100
     10 C15         -3.4490     2.4960    -1.1870 ca         1 A17      -0.142000
     11 C5          -0.1800     0.9600    -0.0810 cp         1 A17      -0.018000
     12 C6           0.5750     1.8570     0.6390 ca         1 A17      -0.095000
     13 N7           4.0290     2.2490     1.8410 nb         1 A17      -0.321000
     14 N8           4.6020     1.1190     1.3970 nb         1 A17      -0.322000
     15 C9           3.9090     0.2360     0.7300 cp         1 A17       0.441800
     16 C11         -1.6160     1.1940    -0.3530 cp         1 A17      -0.057000
     17 C14         -4.3440     1.5040    -0.8250 ca         1 A17      -0.095000
     18 C18         -4.7880    -0.7760     0.1990 c          1 A17       0.679700
     19 C20         -6.9070    -1.8950    -0.1590 cx         1 A17       0.044700
     20 C21         -8.3570    -1.5490    -0.2550 cx         1 A17      -0.131900
     21 C22         -7.7290    -1.7900     1.0840 cx         1 A17      -0.131900
     22 C23          4.6310    -0.9850     0.2950 cp         1 A17      -0.153500
     23 C24          4.3980    -2.1810     0.9680 ca         1 A17      -0.106000
     24 C25          5.0630    -3.3410     0.5990 ca         1 A17      -0.135000
     25 C26          5.9610    -3.3040    -0.4580 ca         1 A17      -0.115000
     26 C27          6.1860    -2.1130    -1.1350 ca         1 A17      -0.133000
     27 C28          5.5310    -0.9370    -0.7750 ca         1 A17      -0.040300
     28 C29          5.7850     0.3380    -1.5260 c3         1 A17      -0.052800
     29 N30         -5.9620    -0.8690    -0.4530 ns         1 A17      -0.547900
     30 H3           2.1930    -1.4100    -0.7000 ha         1 A17       0.152000
     31 H4          -0.1600    -0.9250    -1.1330 ha         1 A17       0.142000
     32 H6           0.1350     2.7660     1.0290 ha         1 A17       0.144000
     33 H29          6.2830     1.0790    -0.8990 hc         1 A17       0.048367
     34 H20         -6.6170    -2.8940    -0.4720 h1         1 A17       0.085700
     35 H21         -8.6140    -0.5300    -0.5150 hc         1 A17       0.077950
     36 H24          3.6950    -2.2030     1.7920 ha         1 A17       0.136000
     37 H22         -7.9630    -2.7080     1.6070 hc         1 A17       0.077950
     38 H10          2.3710     3.4050     2.0020 h4         1 A17       0.026100
     39 H12         -2.1560    -0.7010     0.4850 ha         1 A17       0.158000
     40 H14         -5.4000     1.6680    -0.9980 ha         1 A17       0.132000
     41 H15         -3.8240     3.3970    -1.6560 ha         1 A17       0.135000
     42 H17         -0.9720     4.1760    -0.5990 hc         1 A17       0.049033
     43 H17A        -0.1980     3.0980    -1.7490 hc         1 A17       0.049033
     44 H17B        -1.6140     4.0370    -2.2250 hc         1 A17       0.049033
     45 H21A        -9.0250    -2.2980    -0.6590 hc         1 A17       0.077950
     46 H22A        -7.5660    -0.9340     1.7250 hc         1 A17       0.077950
     47 H25          4.8800    -4.2640     1.1320 ha         1 A17       0.134000
     48 H26          6.4870    -4.2010    -0.7580 ha         1 A17       0.132000
     49 H27          6.8840    -2.0940    -1.9630 ha         1 A17       0.131000
     50 H29A         6.4180     0.1580    -2.3940 hc         1 A17       0.048367
     51 H29B         4.8570     0.7900    -1.8790 hc         1 A17       0.048367
     52 HN30        -6.0990    -0.3340    -1.2960 hn         1 A17       0.318500
     53 C17         -1.1640     3.4710    -1.4100 c3         1 A17      -0.054800
@<TRIPOS>BOND
     1     1     2 ar  
     2     1     5 ar  
     3     1    12 ar  
     4     2     3 ar  
     5     2    15 ar  
     6     3     4 ar  
     7     3    30 1   
     8     4    11 ar  
     9     4    31 1   
    10     5    13 ar  
    11     5    38 1   
    12     6     7 ar  
    13     6    16 ar  
    14     6    39 1   
    15     7    17 ar  
    16     7    18 1   
    17     8    10 ar  
    18     8    16 ar  
    19     8    53 1   
    20     9    18 2   
    21    10    17 ar  
    22    10    41 1   
    23    11    12 ar  
    24    11    16 1   
    25    12    32 1   
    26    13    14 ar  
    27    14    15 ar  
    28    15    22 1   
    29    17    40 1   
    30    18    29 1   
    31    19    20 1   
    32    19    21 1   
    33    19    29 1   
    34    19    34 1   
    35    20    21 1   
    36    20    35 1   
    37    20    45 1   
    38    21    37 1   
    39    21    46 1   
    40    22    23 ar  
    41    22    27 ar  
    42    23    24 ar  
    43    23    36 1   
    44    24    25 ar  
    45    24    47 1   
    46    25    26 ar  
    47    25    48 1   
    48    26    27 ar  
    49    26    49 1   
    50    27    28 1   
    51    28    33 1   
    52    28    50 1   
    53    28    51 1   
    54    29    52 1   
    55    42    53 1   
    56    43    53 1   
    57    44    53 1   
@<TRIPOS>SUBSTRUCTURE
     1 A17         1 TEMP              0 ****  ****    0 ROOT
