@<TRIPOS>MOLECULE
A18
   24    25     1     0     0
SMALL
No Charge or Current Charge


@<TRIPOS>ATOM
      1 OAN         -4.7370    -0.0900    -0.9340 o          1 A18      -0.701500
      2 CAE         -3.8820     0.5120    -0.2950 c          1 A18       0.629500
      3 OAO         -4.0500     1.6640     0.0880 o          1 A18      -0.701500
      4 CAA         -2.5890    -0.1820     0.0290 cc         1 A18       0.122500
      5 OAM         -1.5600     0.4050     0.7430 os         1 A18      -0.213000
      6 CAB         -2.2300    -1.4630    -0.3170 cd         1 A18      -0.220000
      7 CAC         -0.9360    -1.6830     0.1970 cd         1 A18      -0.186000
      8 CAD         -0.5550    -0.5330     0.8350 cc         1 A18       0.061300
      9 CAL          0.7160    -0.1770     1.5540 c3         1 A18      -0.042400
     10 CAK          1.7520     0.4590     0.6290 ca         1 A18      -0.048300
     11 CAF          1.7750     1.8620     0.4940 ca         1 A18      -0.082000
     12 CAG          2.7090     2.4850    -0.3520 ca         1 A18      -0.111000
     13 CAH          3.6280     1.7100    -1.0760 ca         1 A18      -0.114000
     14 CAI          3.6110     0.3110    -0.9530 ca         1 A18      -0.113000
     15 CAJ          2.6790    -0.3170    -0.1080 ca         1 A18       0.132000
     16 ClAP         2.7050    -2.0790    -0.0020 cl         1 A18      -0.218000
     17 HAB         -2.8340    -2.1670    -0.8800 ha         1 A18       0.136000
     18 HAC         -0.3460    -2.5890     0.1050 ha         1 A18       0.110000
     19 HAL1         0.4810     0.5100     2.3760 hc         1 A18       0.052700
     20 HAL2         1.1240    -1.0700     2.0420 hc         1 A18       0.052700
     21 HAF          1.0650     2.4740     1.0460 ha         1 A18       0.124000
     22 HAG          2.7170     3.5680    -0.4470 ha         1 A18       0.110000
     23 HAH          4.3510     2.1910    -1.7320 ha         1 A18       0.104000
     24 HAI          4.3210    -0.2910    -1.5160 ha         1 A18       0.116000
@<TRIPOS>BOND
     1     1     2 1   
     2     2     3 1   
     3     2     4 1   
     4     4     5 1   
     5     4     6 2   
     6     5     8 1   
     7     6     7 1   
     8     6    17 1   
     9     7     8 2   
    10     7    18 1   
    11     8     9 1   
    12     9    10 1   
    13     9    19 1   
    14     9    20 1   
    15    10    11 ar  
    16    10    15 ar  
    17    11    12 ar  
    18    11    21 1   
    19    12    13 ar  
    20    12    22 1   
    21    13    14 ar  
    22    13    23 1   
    23    14    15 ar  
    24    14    24 1   
    25    15    16 1   
@<TRIPOS>SUBSTRUCTURE
     1 A18         1 TEMP              0 ****  ****    0 ROOT
