@<TRIPOS>MOLECULE
A18
   24    25     1     0     0
SMALL
abcg2


@<TRIPOS>ATOM
      1 OAN         -4.4010     0.0550    -1.2260 o          1 A18      -0.701500
      2 CAE         -3.4430     0.6480    -0.6950 c          1 A18       0.629500
      3 OAO         -3.2630     1.8730    -0.5860 o          1 A18      -0.701500
      4 CAA         -2.3860    -0.2470    -0.1220 cc         1 A18       0.122500
      5 OAM         -1.2970     0.3150     0.4610 os         1 A18      -0.213000
      6 CAB         -2.2830    -1.5990    -0.0470 cd         1 A18      -0.220000
      7 CAC         -1.0540    -1.8790     0.6180 cd         1 A18      -0.186000
      8 CAD         -0.4990    -0.6740     0.9050 cc         1 A18       0.061300
      9 CAL          0.7690    -0.2790     1.5760 c3         1 A18      -0.042400
     10 CAK          1.7040     0.4480     0.6440 ca         1 A18      -0.048300
     11 CAF          1.7840     1.8380     0.6750 ca         1 A18      -0.082000
     12 CAG          2.6170     2.5380    -0.1850 ca         1 A18      -0.111000
     13 CAH          3.3960     1.8490    -1.1030 ca         1 A18      -0.114000
     14 CAI          3.3370     0.4640    -1.1570 ca         1 A18      -0.113000
     15 CAJ          2.4950    -0.2160    -0.2900 ca         1 A18       0.132000
     16 CLAP         2.4490    -1.9500    -0.3870 cl         1 A18      -0.218000
     17 HAB         -2.9980    -2.3130    -0.4230 ha         1 A18       0.136000
     18 HAC         -0.6320    -2.8440     0.8480 ha         1 A18       0.110000
     19 HAL1         0.5510     0.3650     2.4320 hc         1 A18       0.052700
     20 HAL2         1.2390    -1.1780     1.9760 hc         1 A18       0.052700
     21 HAF          1.1790     2.3780     1.3940 ha         1 A18       0.124000
     22 HAG          2.6590     3.6180    -0.1350 ha         1 A18       0.110000
     23 HAH          4.0520     2.3830    -1.7780 ha         1 A18       0.104000
     24 HAI          3.9410    -0.0830    -1.8680 ha         1 A18       0.116000
@<TRIPOS>BOND
     1     1     2 1   
     2     2     3 1   
     3     2     4 1   
     4     4     5 1   
     5     4     6 2   
     6     5     8 1   
     7     6     7 1   
     8     6    17 1   
     9     7     8 2   
    10     7    18 1   
    11     8     9 1   
    12     9    10 1   
    13     9    19 1   
    14     9    20 1   
    15    10    11 ar  
    16    10    15 ar  
    17    11    12 ar  
    18    11    21 1   
    19    12    13 ar  
    20    12    22 1   
    21    13    14 ar  
    22    13    23 1   
    23    14    15 ar  
    24    14    24 1   
    25    15    16 1   
@<TRIPOS>SUBSTRUCTURE
     1 A18         1 TEMP              0 ****  ****    0 ROOT
