@<TRIPOS>MOLECULE
A19
   29    30     1     0     0
SMALL
No Charge or Current Charge


@<TRIPOS>ATOM
      1 Cl1         18.7700    28.8710    22.8620 cl         1 A19      -0.220000
      2 C2          17.5700    28.8780    21.5760 ca         1 A19       0.160000
      3 C3          16.7880    30.0220    21.3550 ca         1 A19      -0.131500
      4 C4          15.8300    30.0330    20.3260 ca         1 A19       0.001500
      5 C5          15.6540    28.8890    19.5190 ca         1 A19      -0.290500
      6 C6          16.4440    27.7420    19.7410 ca         1 A19       0.001500
      7 C7          17.4000    27.7400    20.7720 ca         1 A19      -0.131500
      8 S8          14.4570    28.9080    18.1820 sy         1 A19       1.147600
      9 O9          14.0090    27.5450    17.8950 o          1 A19      -0.560500
     10 O10         13.5270    30.0310    18.3220 o          1 A19      -0.560500
     11 N11         15.3530    29.2640    16.8240 nu         1 A19      -0.909100
     12 C12         16.3760    30.1920    16.7330 ca         1 A19       0.303000
     13 C13         16.1300    31.5280    17.1020 ca         1 A19      -0.171000
     14 C14         17.1450    32.4940    17.0340 ca         1 A19      -0.079000
     15 C15         18.4180    32.1250    16.5870 ca         1 A19      -0.052900
     16 C16         18.6760    30.8000    16.2030 ca         1 A19      -0.037000
     17 C17         17.6620    29.8120    16.2650 ca         1 A19      -0.185600
     18 Br18        19.8090    33.4330    16.4940 br         1 A19      -0.149100
     19 C19         17.9930    28.3940    15.8350 c          1 A19       0.720600
     20 O20         19.0450    28.2030    15.2420 o          1 A19      -0.685500
     21 O21         17.2060    27.4920    16.0910 o          1 A19      -0.685500
     22 H3          16.9260    30.9020    21.9770 ha         1 A19       0.125500
     23 H4          15.2340    30.9290    20.1590 ha         1 A19       0.146000
     24 H6          16.3260    26.8560    19.1180 ha         1 A19       0.146000
     25 H7          18.0100    26.8580    20.9450 ha         1 A19       0.125500
     26 H11         15.6840    28.3310    16.5730 hn         1 A19       0.582000
     27 H13         15.1420    31.8300    17.4360 ha         1 A19       0.131000
     28 H14         16.9410    33.5220    17.3240 ha         1 A19       0.110000
     29 H16         19.6760    30.5440    15.8570 ha         1 A19       0.149000
@<TRIPOS>BOND
     1     1     2 1   
     2     2     3 ar  
     3     2     7 ar  
     4     3     4 ar  
     5     3    22 1   
     6     4     5 ar  
     7     4    23 1   
     8     5     6 ar  
     9     5     8 1   
    10     6     7 ar  
    11     6    24 1   
    12     7    25 1   
    13     8     9 2   
    14     8    10 2   
    15     8    11 1   
    16    11    12 1   
    17    11    26 1   
    18    12    13 ar  
    19    12    17 ar  
    20    13    14 ar  
    21    13    27 1   
    22    14    15 ar  
    23    14    28 1   
    24    15    16 ar  
    25    15    18 1   
    26    16    17 ar  
    27    16    29 1   
    28    17    19 1   
    29    19    20 1   
    30    19    21 1   
@<TRIPOS>SUBSTRUCTURE
     1 A19         1 TEMP              0 ****  ****    0 ROOT
