@<TRIPOS>MOLECULE
A19
   29    30     1     0     0
SMALL
abcg2


@<TRIPOS>ATOM
      1 CL1         18.6820    28.7940    22.8400 cl         1 A19      -0.220000
      2 C2          17.5170    28.8610    21.5670 ca         1 A19       0.160000
      3 C3          16.6250    29.9190    21.5180 ca         1 A19      -0.131500
      4 C4          15.6920    29.9720    20.4930 ca         1 A19       0.001500
      5 C5          15.6670    28.9640    19.5430 ca         1 A19      -0.290500
      6 C6          16.5660    27.9050    19.5920 ca         1 A19       0.001500
      7 C7          17.4990    27.8520    20.6120 ca         1 A19      -0.131500
      8 S8          14.4970    29.0160    18.2120 sy         1 A19       1.147600
      9 O9          13.8750    27.7090    18.0820 o          1 A19      -0.560500
     10 O10         13.6520    30.1830    18.4100 o          1 A19      -0.560500
     11 N11         15.4010    29.2010    16.8510 nu         1 A19      -0.909100
     12 C12         16.4040    30.1800    16.7580 ca         1 A19       0.303000
     13 C13         16.1670    31.5150    17.0810 ca         1 A19      -0.171000
     14 C14         17.1690    32.4600    16.9540 ca         1 A19      -0.079000
     15 C15         18.4140    32.0700    16.4850 ca         1 A19      -0.052900
     16 C16         18.6630    30.7510    16.1510 ca         1 A19      -0.037000
     17 C17         17.6690    29.7870    16.2880 ca         1 A19      -0.185600
     18 BR18        19.7850    33.3580    16.2950 br         1 A19      -0.149100
     19 C19         18.0070    28.3470    15.9190 c          1 A19       0.720600
     20 O20         19.1700    28.0990    15.5940 o          1 A19      -0.685500
     21 O21         17.0620    27.5090    15.9700 o          1 A19      -0.685500
     22 H3          16.6520    30.6990    22.2660 ha         1 A19       0.125500
     23 H4          14.9950    30.7970    20.4520 ha         1 A19       0.146000
     24 H6          16.5610    27.1250    18.8420 ha         1 A19       0.146000
     25 H7          18.2040    27.0340    20.6600 ha         1 A19       0.125500
     26 H11         15.8190    28.2930    16.4930 hn         1 A19       0.582000
     27 H13         15.1940    31.8340    17.4240 ha         1 A19       0.131000
     28 H14         16.9620    33.4900    17.2090 ha         1 A19       0.110000
     29 H16         19.6330    30.4420    15.7890 ha         1 A19       0.149000
@<TRIPOS>BOND
     1     1     2 1   
     2     2     3 ar  
     3     2     7 ar  
     4     3     4 ar  
     5     3    22 1   
     6     4     5 ar  
     7     4    23 1   
     8     5     6 ar  
     9     5     8 1   
    10     6     7 ar  
    11     6    24 1   
    12     7    25 1   
    13     8     9 2   
    14     8    10 2   
    15     8    11 1   
    16    11    12 1   
    17    11    26 1   
    18    12    13 ar  
    19    12    17 ar  
    20    13    14 ar  
    21    13    27 1   
    22    14    15 ar  
    23    14    28 1   
    24    15    16 ar  
    25    15    18 1   
    26    16    17 ar  
    27    16    29 1   
    28    17    19 1   
    29    19    20 1   
    30    19    21 1   
@<TRIPOS>SUBSTRUCTURE
     1 A19         1 TEMP              0 ****  ****    0 ROOT
