@<TRIPOS>MOLECULE
A1A
   83    86     1     0     0
SMALL
No Charge or Current Charge


@<TRIPOS>ATOM
      1 C23          1.2600    -1.0180    -0.4440 ca         1 A1A      -0.082300
      2 C24          0.9940    -2.0310    -1.3900 ca         1 A1A      -0.100000
      3 C25          2.0420    -2.8030    -1.9210 ca         1 A1A      -0.113000
      4 C26          3.3640    -2.5780    -1.5050 ca         1 A1A      -0.114000
      5 C27          3.6360    -1.5840    -0.5520 ca         1 A1A      -0.113000
      6 C28          2.5890    -0.8110    -0.0210 ca         1 A1A      -0.100000
      7 C33         -3.8680     1.0530     1.3920 ca         1 A1A      -0.099300
      8 C34         -4.9460     1.3190     0.5240 ca         1 A1A      -0.097000
      9 C35         -5.7270     0.2640     0.0190 ca         1 A1A      -0.113000
     10 C36         -5.4360    -1.0630     0.3790 ca         1 A1A      -0.102000
     11 C37         -4.3630    -1.3340     1.2450 ca         1 A1A      -0.113000
     12 C38         -3.5820    -0.2810     1.7500 ca         1 A1A      -0.097000
     13 C32         -3.0070     2.1940     1.9290 c3         1 A1A       0.207100
     14 C7           3.9460    -2.0510     3.3310 c3         1 A1A       0.168900
     15 C4          -1.2320     2.0170     0.1820 c3         1 A1A       0.122800
     16 O3           1.2320    -1.6190     3.5840 o          1 A1A      -0.556000
     17 N1           1.6450     0.6320     3.7520 ns         1 A1A      -0.484900
     18 C22          0.1120    -0.1850     0.1380 c3         1 A1A      -0.036100
     19 O6           1.2330     1.9930     0.3540 oh         1 A1A      -0.655000
     20 O8           3.3620    -0.7510     3.5240 os         1 A1A      -0.457100
     21 C10          0.1920     1.5260    -1.8240 c          1 A1A       0.567100
     22 O11          0.8250     2.4600    -2.3050 o          1 A1A      -0.615100
     23 N12         -0.4130     0.5650    -2.6110 ns         1 A1A      -0.470900
     24 C51         -0.2390     0.6100    -4.0630 c5         1 A1A       0.157000
     25 C52          0.9110    -0.2160    -4.5860 ca         1 A1A      -0.106300
     26 C57          0.5270    -1.0490    -5.6170 ca         1 A1A      -0.080300
     27 C53          2.2430    -0.1950    -4.1360 ca         1 A1A      -0.066000
     28 C54          3.1840    -1.0440    -4.7500 ca         1 A1A      -0.112000
     29 C55          2.7890    -1.8970    -5.8020 ca         1 A1A      -0.107000
     30 C59         -1.4890    -0.2000    -4.6530 c5         1 A1A       0.153300
     31 O60         -2.0280    -1.1770    -3.7400 oh         1 A1A      -0.660000
     32 C30          2.0060    -0.6760     3.6190 c          1 A1A       0.641100
     33 C56          1.4520    -1.9000    -6.2430 ca         1 A1A      -0.099000
     34 C58         -0.9350    -0.9080    -5.9520 c5         1 A1A      -0.061100
     35 C41          0.2520     1.1210     3.8310 c3         1 A1A       0.072700
     36 C42         -0.3300     0.9220     5.2690 c3         1 A1A      -0.072700
     37 C43         -1.8330     1.2720     5.3480 c3         1 A1A      -0.086600
     38 C1           0.1010     1.3280    -0.2690 c3         1 A1A       0.124000
     39 C44          0.4680     1.6500     6.3800 c3         1 A1A      -0.086600
     40 C45          0.1920     2.6010     3.3250 c          1 A1A       0.625100
     41 O46          0.9620     3.4630     3.7350 o          1 A1A      -0.602100
     42 N47         -0.7680     2.9450     2.3750 ns         1 A1A      -0.369300
     43 H24         -0.0230    -2.2220    -1.7230 ha         1 A1A       0.118000
     44 H25          1.8280    -3.5730    -2.6590 ha         1 A1A       0.111000
     45 H26          4.1740    -3.1750    -1.9180 ha         1 A1A       0.109000
     46 H27          4.6580    -1.4120    -0.2220 ha         1 A1A       0.111000
     47 H28          2.8150    -0.0530     0.7240 ha         1 A1A       0.118000
     48 H34         -5.1770     2.3420     0.2350 ha         1 A1A       0.118000
     49 H35         -6.5570     0.4750    -0.6510 ha         1 A1A       0.116500
     50 H36         -6.0400    -1.8780    -0.0120 ha         1 A1A       0.115000
     51 H37         -4.1350    -2.3610     1.5230 ha         1 A1A       0.116500
     52 H38         -2.7490    -0.5000     2.4140 ha         1 A1A       0.118000
     53 H321        -3.1680     2.2550     3.0120 h1         1 A1A       0.052700
     54 H322        -3.3500     3.1460     1.5030 h1         1 A1A       0.052700
     55 H7C1         5.0380    -1.9730     3.2630 h1         1 A1A       0.046700
     56 H7C2         3.7030    -2.7180     4.1690 h1         1 A1A       0.046700
     57 H7C3         3.5790    -2.5100     2.4040 h1         1 A1A       0.046700
     58 H4C1        -2.0340     1.5120    -0.3710 h1         1 A1A       0.052200
     59 H4C2        -1.2310     3.0540    -0.1810 h1         1 A1A       0.052200
     60 H1           2.4010     1.3050     3.7510 hn         1 A1A       0.345500
     61 H221         0.1550    -0.2570     1.2270 hc         1 A1A       0.072700
     62 H222        -0.8520    -0.6350    -0.1320 hc         1 A1A       0.072700
     63 H6           1.5750     2.6210    -0.3240 ho         1 A1A       0.478000
     64 H12         -0.9240    -0.1850    -2.1630 hn         1 A1A       0.340500
     65 H51         -0.2040     1.6300    -4.4720 h1         1 A1A       0.087700
     66 H53          2.5440     0.4600    -3.3220 ha         1 A1A       0.132000
     67 H54          4.2170    -1.0440    -4.4080 ha         1 A1A       0.114000
     68 H55          3.5180    -2.5520    -6.2730 ha         1 A1A       0.111000
     69 H59         -2.2890     0.5040    -4.9210 h1         1 A1A       0.044700
     70 H60         -2.7650    -1.6270    -4.2080 ho         1 A1A       0.446000
     71 H56          1.1410    -2.5530    -7.0560 ha         1 A1A       0.112000
     72 H581        -1.4240    -1.8670    -6.1550 hc         1 A1A       0.059700
     73 H582        -1.0760    -0.2760    -6.8370 hc         1 A1A       0.059700
     74 H41         -0.3540     0.5100     3.1560 h1         1 A1A       0.097700
     75 H42         -0.2570    -0.1510     5.4890 hc         1 A1A       0.062700
     76 H431        -2.0020     2.3390     5.1550 hc         1 A1A       0.036700
     77 H432        -2.4050     0.6900     4.6170 hc         1 A1A       0.036700
     78 H433        -2.2310     1.0410     6.3440 hc         1 A1A       0.036700
     79 H441         0.0760     1.3840     7.3690 hc         1 A1A       0.036700
     80 H442         1.5280     1.3700     6.3580 hc         1 A1A       0.036700
     81 H443         0.3950     2.7390     6.2740 hc         1 A1A       0.036700
     82 H47         -0.7810     3.9230     2.1020 hn         1 A1A       0.296500
     83 N24         -1.5640     2.0050     1.6410 n3         1 A1A      -0.466600
@<TRIPOS>BOND
     1     1     2 ar  
     2     1     6 ar  
     3     1    18 1   
     4     2     3 ar  
     5     2    43 1   
     6     3     4 ar  
     7     3    44 1   
     8     4     5 ar  
     9     4    45 1   
    10     5     6 ar  
    11     5    46 1   
    12     6    47 1   
    13     7     8 ar  
    14     7    12 ar  
    15     7    13 1   
    16     8     9 ar  
    17     8    48 1   
    18     9    10 ar  
    19     9    49 1   
    20    10    11 ar  
    21    10    50 1   
    22    11    12 ar  
    23    11    51 1   
    24    12    52 1   
    25    13    53 1   
    26    13    54 1   
    27    13    83 1   
    28    14    20 1   
    29    14    55 1   
    30    14    56 1   
    31    14    57 1   
    32    15    38 1   
    33    15    58 1   
    34    15    59 1   
    35    15    83 1   
    36    16    32 2   
    37    17    32 1   
    38    17    35 1   
    39    17    60 1   
    40    18    38 1   
    41    18    61 1   
    42    18    62 1   
    43    19    38 1   
    44    19    63 1   
    45    20    32 1   
    46    21    22 2   
    47    21    23 1   
    48    21    38 1   
    49    23    24 1   
    50    23    64 1   
    51    24    25 1   
    52    24    30 1   
    53    24    65 1   
    54    25    26 ar  
    55    25    27 ar  
    56    26    33 ar  
    57    26    34 1   
    58    27    28 ar  
    59    27    66 1   
    60    28    29 ar  
    61    28    67 1   
    62    29    33 ar  
    63    29    68 1   
    64    30    31 1   
    65    30    34 1   
    66    30    69 1   
    67    31    70 1   
    68    33    71 1   
    69    34    72 1   
    70    34    73 1   
    71    35    36 1   
    72    35    40 1   
    73    35    74 1   
    74    36    37 1   
    75    36    39 1   
    76    36    75 1   
    77    37    76 1   
    78    37    77 1   
    79    37    78 1   
    80    39    79 1   
    81    39    80 1   
    82    39    81 1   
    83    40    41 2   
    84    40    42 1   
    85    42    82 1   
    86    42    83 1   
@<TRIPOS>SUBSTRUCTURE
     1 A1A         1 TEMP              0 ****  ****    0 ROOT
