@<TRIPOS>MOLECULE
A1A
   83    86     1     0     0
SMALL
abcg2


@<TRIPOS>ATOM
      1 C23          1.0570    -1.3120    -0.2840 ca         1 A1A      -0.082300
      2 C24          0.6600    -2.3700    -1.0990 ca         1 A1A      -0.100000
      3 C25          1.5860    -3.2600    -1.6270 ca         1 A1A      -0.113000
      4 C26          2.9360    -3.0990    -1.3550 ca         1 A1A      -0.114000
      5 C27          3.3470    -2.0450    -0.5490 ca         1 A1A      -0.113000
      6 C28          2.4180    -1.1630    -0.0140 ca         1 A1A      -0.100000
      7 C33         -3.5550     0.5460     1.1990 ca         1 A1A      -0.099300
      8 C34         -4.3970     0.5230     0.0920 ca         1 A1A      -0.097000
      9 C35         -4.8760    -0.6800    -0.4120 ca         1 A1A      -0.113000
     10 C36         -4.5150    -1.8760     0.1890 ca         1 A1A      -0.102000
     11 C37         -3.6750    -1.8640     1.2970 ca         1 A1A      -0.113000
     12 C38         -3.1970    -0.6620     1.7950 ca         1 A1A      -0.097000
     13 C32         -2.9970     1.8430     1.7190 c3         1 A1A       0.207100
     14 C7           4.0360    -1.5280     3.4200 c3         1 A1A       0.168900
     15 C4          -1.0920     1.8870     0.2060 c3         1 A1A       0.122800
     16 O3           1.3900    -1.2320     3.5670 o          1 A1A      -0.556000
     17 N1           1.6320     1.0130     3.8280 ns         1 A1A      -0.484900
     18 C22          0.0200    -0.3850     0.2930 c3         1 A1A      -0.036100
     19 O6           1.2490     1.6270     0.7370 oh         1 A1A      -0.655000
     20 O8           3.4200    -0.2560     3.5770 os         1 A1A      -0.457100
     21 C10          0.5750     1.3060    -1.5190 c          1 A1A       0.567100
     22 O11          1.5470     1.9920    -1.8120 o          1 A1A      -0.615100
     23 N12         -0.2380     0.7470    -2.4170 ns         1 A1A      -0.470900
     24 C51         -0.0620     0.8660    -3.8400 c5         1 A1A       0.157000
     25 C52          0.8000    -0.1890    -4.4910 ca         1 A1A      -0.106300
     26 C57          0.2910    -0.4860    -5.7510 ca         1 A1A      -0.080300
     27 C53          1.9400    -0.8080    -4.0140 ca         1 A1A      -0.066000
     28 C54          2.5790    -1.7410    -4.8250 ca         1 A1A      -0.112000
     29 C55          2.0800    -2.0370    -6.0890 ca         1 A1A      -0.107000
     30 C59         -1.3960     0.7250    -4.5950 c5         1 A1A       0.153300
     31 O60         -2.1180    -0.3060    -3.9590 oh         1 A1A      -0.660000
     32 C30          2.0840    -0.2370     3.6470 c          1 A1A       0.641100
     33 C56          0.9280    -1.4120    -6.5610 ca         1 A1A      -0.099000
     34 C58         -0.9530     0.3190    -6.0080 c5         1 A1A      -0.061100
     35 C41          0.2230     1.3220     3.8300 c3         1 A1A       0.072700
     36 C42         -0.3730     1.2490     5.2560 c3         1 A1A      -0.072700
     37 C43         -1.8830     1.4480     5.2620 c3         1 A1A      -0.086600
     38 C1           0.2090     1.1050    -0.0380 c3         1 A1A       0.124000
     39 C44          0.3040     2.1720     6.2620 c3         1 A1A      -0.086600
     40 C45          0.0440     2.6970     3.2100 c          1 A1A       0.625100
     41 O46          0.7370     3.6400     3.5600 o          1 A1A      -0.602100
     42 N47         -0.9670     2.8760     2.3310 ns         1 A1A      -0.369300
     43 H24         -0.3920    -2.5060    -1.3240 ha         1 A1A       0.118000
     44 H25          1.2500    -4.0710    -2.2590 ha         1 A1A       0.111000
     45 H26          3.6620    -3.7880    -1.7680 ha         1 A1A       0.109000
     46 H27          4.3990    -1.9120    -0.3270 ha         1 A1A       0.111000
     47 H28          2.7580    -0.3560     0.6200 ha         1 A1A       0.118000
     48 H34         -4.6730     1.4560    -0.3870 ha         1 A1A       0.118000
     49 H35         -5.5270    -0.6800    -1.2760 ha         1 A1A       0.116500
     50 H36         -4.8820    -2.8160    -0.2030 ha         1 A1A       0.115000
     51 H37         -3.3890    -2.7950     1.7700 ha         1 A1A       0.116500
     52 H38         -2.5280    -0.6650     2.6470 ha         1 A1A       0.118000
     53 H321        -3.2350     1.9580     2.7770 h1         1 A1A       0.052700
     54 H322        -3.4590     2.6880     1.1910 h1         1 A1A       0.052700
     55 H7C1         5.1040    -1.3370     3.3620 h1         1 A1A       0.046700
     56 H7C2         3.8380    -2.1820     4.2700 h1         1 A1A       0.046700
     57 H7C3         3.7120    -2.0240     2.5050 h1         1 A1A       0.046700
     58 H4C1        -1.8810     1.4620    -0.4140 h1         1 A1A       0.052200
     59 H4C2        -0.9660     2.9250    -0.1350 h1         1 A1A       0.052200
     60 H1           2.2910     1.7750     3.8570 hn         1 A1A       0.345500
     61 H221         0.0020    -0.4840     1.3790 hc         1 A1A       0.072700
     62 H222        -0.9720    -0.7100    -0.0340 hc         1 A1A       0.072700
     63 H6           1.8080     2.1490     0.1410 ho         1 A1A       0.478000
     64 H12         -0.9790     0.1310    -2.1180 hn         1 A1A       0.340500
     65 H51          0.3510     1.8560    -4.0550 h1         1 A1A       0.087700
     66 H53          2.3240    -0.5950    -3.0240 ha         1 A1A       0.132000
     67 H54          3.4650    -2.2470    -4.4650 ha         1 A1A       0.114000
     68 H55          2.5850    -2.7690    -6.7070 ha         1 A1A       0.111000
     69 H59         -1.9590     1.6630    -4.5900 h1         1 A1A       0.044700
     70 H60         -3.0410    -0.2430    -4.2190 ho         1 A1A       0.446000
     71 H56          0.5370    -1.6560    -7.5410 ha         1 A1A       0.112000
     72 H581        -1.7300    -0.2240    -6.5480 hc         1 A1A       0.059700
     73 H582        -0.7170     1.2120    -6.5950 hc         1 A1A       0.059700
     74 H41         -0.2950     0.5840     3.2200 h1         1 A1A       0.097700
     75 H42         -0.1780     0.2180     5.5720 hc         1 A1A       0.062700
     76 H431        -2.1640     2.4650     4.9790 hc         1 A1A       0.036700
     77 H432        -2.3860     0.7580     4.5830 hc         1 A1A       0.036700
     78 H433        -2.2820     1.2670     6.2610 hc         1 A1A       0.036700
     79 H441        -0.0290     1.9210     7.2700 hc         1 A1A       0.036700
     80 H442         1.3890     2.0710     6.2450 hc         1 A1A       0.036700
     81 H443         0.0600     3.2200     6.0890 hc         1 A1A       0.036700
     82 H47         -1.0550     3.8180     1.9580 hn         1 A1A       0.296500
     83 N24         -1.5380     1.8530     1.5940 n3         1 A1A      -0.466600
@<TRIPOS>BOND
     1     1     2 ar  
     2     1     6 ar  
     3     1    18 1   
     4     2     3 ar  
     5     2    43 1   
     6     3     4 ar  
     7     3    44 1   
     8     4     5 ar  
     9     4    45 1   
    10     5     6 ar  
    11     5    46 1   
    12     6    47 1   
    13     7     8 ar  
    14     7    12 ar  
    15     7    13 1   
    16     8     9 ar  
    17     8    48 1   
    18     9    10 ar  
    19     9    49 1   
    20    10    11 ar  
    21    10    50 1   
    22    11    12 ar  
    23    11    51 1   
    24    12    52 1   
    25    13    53 1   
    26    13    54 1   
    27    13    83 1   
    28    14    20 1   
    29    14    55 1   
    30    14    56 1   
    31    14    57 1   
    32    15    38 1   
    33    15    58 1   
    34    15    59 1   
    35    15    83 1   
    36    16    32 2   
    37    17    32 1   
    38    17    35 1   
    39    17    60 1   
    40    18    38 1   
    41    18    61 1   
    42    18    62 1   
    43    19    38 1   
    44    19    63 1   
    45    20    32 1   
    46    21    22 2   
    47    21    23 1   
    48    21    38 1   
    49    23    24 1   
    50    23    64 1   
    51    24    25 1   
    52    24    30 1   
    53    24    65 1   
    54    25    26 ar  
    55    25    27 ar  
    56    26    33 ar  
    57    26    34 1   
    58    27    28 ar  
    59    27    66 1   
    60    28    29 ar  
    61    28    67 1   
    62    29    33 ar  
    63    29    68 1   
    64    30    31 1   
    65    30    34 1   
    66    30    69 1   
    67    31    70 1   
    68    33    71 1   
    69    34    72 1   
    70    34    73 1   
    71    35    36 1   
    72    35    40 1   
    73    35    74 1   
    74    36    37 1   
    75    36    39 1   
    76    36    75 1   
    77    37    76 1   
    78    37    77 1   
    79    37    78 1   
    80    39    79 1   
    81    39    80 1   
    82    39    81 1   
    83    40    41 2   
    84    40    42 1   
    85    42    82 1   
    86    42    83 1   
@<TRIPOS>SUBSTRUCTURE
     1 A1A         1 TEMP              0 ****  ****    0 ROOT
