@<TRIPOS>MOLECULE
A1A
   83    86     1     0     0
SMALL
abcg2


@<TRIPOS>ATOM
      1 C10        -23.9620   -13.9720    33.8850 c3         1 A1A      -0.028100
      2 C13        -26.1310   -11.4350    35.6900 ca         1 A1A      -0.112000
      3 C15        -24.0450   -11.6040    36.8640 ca         1 A1A      -0.112000
      4 C04        -18.9240   -10.2510    35.6090 c3         1 A1A       0.237600
      5 C06        -20.4560   -11.3190    33.9210 cc         1 A1A       0.194300
      6 C09        -23.1890   -13.3040    32.7430 c3         1 A1A      -0.057700
      7 C11        -24.4330   -12.9750    34.9070 ca         1 A1A      -0.094300
      8 C12        -25.6950   -12.3930    34.7860 ca         1 A1A      -0.116500
      9 C14        -25.3050   -11.0360    36.7330 ca         1 A1A      -0.127000
     10 C16        -23.6160   -12.5670    35.9590 ca         1 A1A      -0.116500
     11 C07        -21.6940   -11.3590    33.3280 cd         1 A1A      -0.225000
     12 C17        -22.8540   -14.2460    31.5410 c          1 A1A       0.734000
     13 C22        -18.7410   -10.0350    39.0790 c3         1 A1A      -0.082700
     14 C23        -18.7050   -10.6470    40.4550 cc         1 A1A      -0.297600
     15 C25        -19.2630   -11.3350    42.7360 cc         1 A1A      -0.206300
     16 C26        -19.8840   -11.4820    44.0830 c3         1 A1A      -0.055100
     17 C27        -19.3950   -10.4350    45.0870 c3         1 A1A       0.258600
     18 C37        -18.2410   -12.0460    42.1950 cd         1 A1A      -0.183300
     19 C38        -17.5170   -13.1690    42.8510 c3         1 A1A      -0.014800
     20 C41        -15.5170   -12.2100    40.6900 ca         1 A1A      -0.242300
     21 C42        -14.7900   -13.3500    40.9520 ca         1 A1A       0.129900
     22 C44        -13.0320   -12.1740    41.7160 ca         1 A1A       0.161300
     23 C45        -11.6420   -12.1460    42.2690 c3         1 A1A      -0.124400
     24 C47        -14.8460   -10.9960    40.9650 ca         1 A1A       0.399900
     25 C49        -19.4080    -8.6620    39.1290 c3         1 A1A      -0.114100
     26 N08        -21.9910   -12.6660    33.2550 na         1 A1A       0.188800
     27 N20        -21.0210   -13.3940    33.7690 nd         1 A1A      -0.196800
     28 N21        -20.0900   -12.5940    34.1710 nc         1 A1A      -0.378000
     29 N39        -17.9390   -11.6380    40.8970 na         1 A1A       0.041300
     30 N43        -13.5560   -13.3650    41.4490 nb         1 A1A      -0.249000
     31 N46        -13.6210   -11.0090    41.4980 nb         1 A1A      -0.296000
     32 N48        -15.3990    -9.7900    40.7500 nv         1 A1A      -1.041900
     33 O03        -19.9110   -10.3140    36.6250 os         1 A1A      -0.598400
     34 O18        -21.8450   -13.9530    30.8840 o          1 A1A      -0.719000
     35 O19        -23.6710   -15.1600    31.3400 o          1 A1A      -0.719000
     36 O28        -20.1730   -10.5340    46.2550 os         1 A1A      -0.602400
     37 O30        -21.9100    -9.7820    47.8910 o          1 A1A      -0.889500
     38 O31        -21.6770    -8.5150    45.6480 os         1 A1A      -0.743800
     39 O33        -23.6870    -7.9800    44.2230 o          1 A1A      -0.927500
     40 O34        -23.1880   -10.4430    44.7760 o          1 A1A      -0.927500
     41 O35        -21.6560    -9.1340    43.1770 o          1 A1A      -0.927500
     42 O36        -19.8940    -8.2390    47.3720 o          1 A1A      -0.889500
     43 O50        -17.4160    -9.9140    38.5900 oh         1 A1A      -0.691000
     44 P02        -19.7510   -11.2170    37.9830 p5         1 A1A       1.388400
     45 P29        -20.9430    -9.2080    46.8960 p5         1 A1A       1.483800
     46 P32        -22.6530    -9.0870    44.3400 p5         1 A1A       1.394900
     47 S24        -19.8240   -10.1450    41.6210 ss         1 A1A       0.817000
     48 H1         -24.8180   -14.4810    33.4430 hc         1 A1A       0.064200
     49 H2         -23.3380   -14.7390    34.3470 hc         1 A1A       0.064200
     50 H3         -27.1170   -11.0010    35.5800 ha         1 A1A       0.128500
     51 H4         -23.3840   -11.3000    37.6650 ha         1 A1A       0.128500
     52 H5         -18.2750   -11.1280    35.6360 h1         1 A1A       0.013700
     53 H6         -18.2950    -9.3670    35.7550 h1         1 A1A       0.013700
     54 H7         -18.8060   -10.0350    33.5040 hc         1 A1A       0.022200
     55 H8         -20.1940    -9.2330    34.1980 hc         1 A1A       0.022200
     56 H9         -23.8050   -12.4910    32.3460 h1         1 A1A       0.036700
     57 H10        -26.3450   -12.6990    33.9740 ha         1 A1A       0.112000
     58 H11        -25.6420   -10.2880    37.4390 ha         1 A1A       0.108000
     59 H12        -22.6310   -13.0050    36.0790 ha         1 A1A       0.112000
     60 H13        -22.3580   -10.5880    32.9760 h4         1 A1A       0.142000
     61 H14        -20.9650   -11.3910    43.9990 hc         1 A1A       0.089700
     62 H15        -19.6690   -12.4810    44.4650 hc         1 A1A       0.089700
     63 H16        -18.3400   -10.6210    45.3220 h1         1 A1A       0.002700
     64 H17        -19.4530    -9.4460    44.6280 h1         1 A1A       0.002700
     65 H18        -16.5150   -12.8810    43.1650 hc         1 A1A       0.041367
     66 H19        -18.0610   -13.4820    43.7390 hc         1 A1A       0.041367
     67 H20        -17.4310   -14.0390    42.2010 hc         1 A1A       0.041367
     68 H21        -16.9430   -11.9570    39.0930 h1         1 A1A       0.104700
     69 H22        -17.1770   -13.3790    40.0580 h1         1 A1A       0.104700
     70 H23        -15.2380   -14.3200    40.7510 h4         1 A1A       0.017100
     71 H24        -11.4490   -11.2210    42.8070 hc         1 A1A       0.041700
     72 H25        -11.4670   -12.9940    42.9290 hc         1 A1A       0.041700
     73 H26        -10.9170   -12.2140    41.4550 hc         1 A1A       0.041700
     74 H27        -18.8870    -7.9960    39.8200 hc         1 A1A       0.053033
     75 H28        -19.3850    -8.2080    38.1380 hc         1 A1A       0.053033
     76 H29        -20.4550    -8.7200    39.4200 hc         1 A1A       0.053033
     77 H30        -14.7930    -8.9940    40.8680 hn         1 A1A       0.498500
     78 H31        -16.1270    -9.6820    40.0550 hn         1 A1A       0.498500
     79 H37        -17.3560    -9.1340    38.0260 ho         1 A1A       0.434000
     80 C40        -16.8940   -12.3270    40.1090 c3         1 A1A       0.108900
     81 O01        -18.9240   -12.4390    37.7120 o          1 A1A      -0.782500
     82 O51        -21.1140   -11.2960    38.5990 o          1 A1A      -0.782500
     83 C05        -19.5980   -10.1460    34.2520 c3         1 A1A      -0.082700
@<TRIPOS>BOND
     1     1     6 1   
     2     1     7 1   
     3     1    48 1   
     4     1    49 1   
     5     2     8 ar  
     6     2     9 ar  
     7     2    50 1   
     8     3     9 ar  
     9     3    10 ar  
    10     3    51 1   
    11     4    33 1   
    12     4    52 1   
    13     4    53 1   
    14     4    83 1   
    15     5    11 2   
    16     5    28 1   
    17     5    83 1   
    18     6    12 1   
    19     6    26 1   
    20     6    56 1   
    21     7     8 ar  
    22     7    10 ar  
    23     8    57 1   
    24     9    58 1   
    25    10    59 1   
    26    11    26 1   
    27    11    60 1   
    28    12    34 1   
    29    12    35 1   
    30    13    14 1   
    31    13    25 1   
    32    13    43 1   
    33    13    44 1   
    34    14    29 2   
    35    14    47 1   
    36    15    16 1   
    37    15    18 2   
    38    15    47 1   
    39    16    17 1   
    40    16    61 1   
    41    16    62 1   
    42    17    36 1   
    43    17    63 1   
    44    17    64 1   
    45    18    19 1   
    46    18    29 1   
    47    19    65 1   
    48    19    66 1   
    49    19    67 1   
    50    20    21 ar  
    51    20    24 ar  
    52    20    80 1   
    53    21    30 ar  
    54    21    70 1   
    55    22    23 1   
    56    22    30 ar  
    57    22    31 ar  
    58    23    71 1   
    59    23    72 1   
    60    23    73 1   
    61    24    31 ar  
    62    24    32 1   
    63    25    74 1   
    64    25    75 1   
    65    25    76 1   
    66    26    27 1   
    67    27    28 2   
    68    29    80 1   
    69    32    77 1   
    70    32    78 1   
    71    33    44 1   
    72    36    45 1   
    73    37    45 1   
    74    38    45 1   
    75    38    46 1   
    76    39    46 1   
    77    40    46 1   
    78    41    46 1   
    79    42    45 1   
    80    43    79 1   
    81    44    81 1   
    82    44    82 1   
    83    54    83 1   
    84    55    83 1   
    85    68    80 1   
    86    69    80 1   
@<TRIPOS>SUBSTRUCTURE
     1 A1A         1 TEMP              0 ****  ****    0 ROOT
