@<TRIPOS>MOLECULE
A1A
   90    96     1     0     0
SMALL
abcg2


@<TRIPOS>ATOM
      1 C10        -14.3310    16.6870   -21.6590 ca         1 A1A      -0.093500
      2 C11        -13.9870    15.4260   -22.1450 ca         1 A1A      -0.098500
      3 C12        -14.4720    14.2770   -21.5480 ca         1 A1A      -0.093000
      4 C16        -19.5480    13.2180   -20.4640 c3         1 A1A       0.176000
      5 C17        -20.1810    11.8340   -20.3830 c3         1 A1A       0.167600
      6 C18        -19.5840    13.8370   -21.8470 ca         1 A1A      -0.096300
      7 C19        -20.3340    13.2980   -22.8830 ca         1 A1A      -0.065000
      8 C01        -15.2990    14.3430   -20.4280 ca         1 A1A      -0.123300
      9 C02        -15.8800    13.0730   -19.7880 c5         1 A1A       0.216500
     10 C03        -17.1120    12.7570   -20.6410 c          1 A1A       0.566000
     11 C05        -14.8290    11.9540   -19.7750 c3         1 A1A      -0.060400
     12 C06        -17.8440    13.5810   -18.6330 c2         1 A1A       0.688800
     13 C08        -15.6420    15.6030   -19.9430 ca         1 A1A      -0.093000
     14 C09        -15.1700    16.7550   -20.5500 ca         1 A1A      -0.098500
     15 C20        -20.3810    13.9120   -24.1260 ca         1 A1A      -0.102000
     16 C21        -19.6510    15.0640   -24.3470 ca         1 A1A       0.154000
     17 C22        -18.8730    15.6140   -23.3310 ca         1 A1A      -0.127500
     18 C23        -18.8700    15.0070   -22.0840 ca         1 A1A      -0.044000
     19 C26        -16.4950    10.0680   -19.2410 c3         1 A1A      -0.099100
     20 C27        -14.9120    10.8620   -17.4720 c3         1 A1A      -0.099100
     21 C28        -13.8370    17.9040   -22.2930 cc         1 A1A       0.253500
     22 C29        -18.0880    16.8390   -23.5380 cc         1 A1A       0.515000
     23 C31        -17.3850    18.8120   -23.5090 cd         1 A1A       0.532900
     24 C35        -14.0640     9.6360   -19.4550 c3         1 A1A       0.289000
     25 C36        -13.9990    19.2450   -21.9150 cc         1 A1A       0.210900
     26 C40        -12.1850    19.5750   -24.8390 cx         1 A1A       0.028300
     27 C41        -11.0170    20.4870   -24.6750 cx         1 A1A      -0.118900
     28 C42        -10.8040    19.0590   -25.0690 cx         1 A1A      -0.118900
     29 C43        -20.4930    10.2260   -18.6790 c          1 A1A       0.650100
     30 C46        -20.5010     8.7710   -16.7130 cx         1 A1A      -0.014600
     31 C47        -21.7250     9.0250   -15.8770 c3         1 A1A       0.197300
     32 C55        -19.4230     7.8860   -16.1600 cx         1 A1A      -0.101400
     33 C56        -20.2560     7.4200   -17.3090 cx         1 A1A      -0.101400
     34 F48        -22.0670     7.9190   -15.1610 f          1 A1A      -0.114500
     35 F49        -22.7910     9.3170   -16.6750 f          1 A1A      -0.114500
     36 F50        -14.1890     9.3420   -20.7590 f          1 A1A      -0.117000
     37 F51        -12.8040    10.0660   -19.2830 f          1 A1A      -0.117000
     38 F52        -14.1540     8.4690   -18.8000 f          1 A1A      -0.117000
     39 F53        -16.3740    14.7380   -24.3620 f          1 A1A      -0.096500
     40 F54        -16.5190    15.8740   -26.1970 f          1 A1A      -0.096500
     41 N04        -16.5050    13.3390   -18.5220 nu         1 A1A      -0.907400
     42 N07        -18.5600    14.0470   -17.7010 n2         1 A1A      -0.868100
     43 N15        -18.1960    13.2000   -19.9400 n          1 A1A      -0.391300
     44 N30        -18.3940    18.0240   -23.0740 nd         1 A1A      -0.683000
     45 N32        -16.4730    18.1860   -24.2030 nc         1 A1A      -0.518800
     46 N33        -16.9190    16.9240   -24.2140 na         1 A1A      -0.138700
     47 N37        -13.3860    20.0030   -22.8030 nd         1 A1A      -0.488800
     48 N38        -12.8780    19.1520   -23.6630 na         1 A1A       0.280600
     49 N39        -13.1210    17.8910   -23.4090 nd         1 A1A      -0.495800
     50 N45        -20.0820     9.9280   -17.4260 ns         1 A1A      -0.479900
     51 O14        -17.1220    12.2780   -21.7470 o          1 A1A      -0.488000
     52 O44        -21.1910     9.5430   -19.3890 o          1 A1A      -0.508000
     53 CL24       -19.7290    15.8400   -25.8870 cl         1 A1A      -0.171000
     54 H1         -13.3330    15.3360   -23.0030 ha         1 A1A       0.126000
     55 H2         -14.1870    13.3250   -21.9730 ha         1 A1A       0.123500
     56 H3         -20.1230    13.8810   -19.8120 h1         1 A1A       0.073700
     57 H4         -21.2440    11.8990   -20.6220 h1         1 A1A       0.069200
     58 H5         -19.7070    11.1400   -21.0810 h1         1 A1A       0.069200
     59 H6         -20.9040    12.3890   -22.7510 ha         1 A1A       0.125000
     60 H7         -14.6480    11.7030   -20.8200 hc         1 A1A       0.074200
     61 H8         -13.9010    12.3980   -19.4060 hc         1 A1A       0.074200
     62 H9         -16.2860    15.7140   -19.0810 ha         1 A1A       0.123500
     63 H10        -15.4670    17.7140   -20.1450 ha         1 A1A       0.126000
     64 H11        -20.9830    13.4860   -24.9180 ha         1 A1A       0.139000
     65 H12        -18.2800    15.4590   -21.2960 ha         1 A1A       0.131000
     66 H13        -16.6250     9.1140   -18.7290 hc         1 A1A       0.053867
     67 H14        -17.2610    10.7310   -18.8420 hc         1 A1A       0.053867
     68 H15        -16.6980     9.9130   -20.3000 hc         1 A1A       0.053867
     69 H16        -14.9800     9.9220   -16.9240 hc         1 A1A       0.053867
     70 H17        -13.9510    11.3240   -17.2400 hc         1 A1A       0.053867
     71 H18        -15.6930    11.5110   -17.0870 hc         1 A1A       0.053867
     72 H19        -17.3230    19.8690   -23.3030 h5         1 A1A       0.069100
     73 H20        -15.0870    16.2010   -24.8460 h3         1 A1A       0.113700
     74 H21        -14.5100    19.6740   -21.0680 h4         1 A1A       0.053100
     75 H22        -12.8350    19.7120   -25.6950 h1         1 A1A       0.109700
     76 H23        -10.8890    21.2620   -25.4180 hc         1 A1A       0.087950
     77 H24        -10.7440    20.7760   -23.6690 hc         1 A1A       0.087950
     78 H25        -10.3870    18.3890   -24.3290 hc         1 A1A       0.087950
     79 H26        -10.5300    18.8310   -26.0900 hc         1 A1A       0.087950
     80 H27        -21.5870     9.8570   -15.1840 h2         1 A1A       0.060700
     81 H28        -18.4050     8.1910   -16.3630 hc         1 A1A       0.090700
     82 H29        -19.5720     7.4340   -15.1890 hc         1 A1A       0.090700
     83 H30        -20.9920     6.6460   -17.1370 hc         1 A1A       0.090700
     84 H31        -19.8020     7.3930   -18.2890 hc         1 A1A       0.090700
     85 H32        -15.9960    13.7720   -17.7670 hn         1 A1A       0.514000
     86 H33        -19.5390    14.1240   -17.9420 hn         1 A1A       0.411400
     87 H34        -19.4940    10.5930   -16.9450 hn         1 A1A       0.337500
     88 O25        -19.9880    11.4130   -19.0440 os         1 A1A      -0.475100
     89 C13        -15.1040    10.6550   -18.9790 c3         1 A1A      -0.084000
     90 C34        -16.1430    15.9410   -24.9060 c3         1 A1A       0.333300
@<TRIPOS>BOND
     1     1     2 ar  
     2     1    14 ar  
     3     1    21 1   
     4     2     3 ar  
     5     2    54 1   
     6     3     8 ar  
     7     3    55 1   
     8     4     5 1   
     9     4     6 1   
    10     4    43 1   
    11     4    56 1   
    12     5    57 1   
    13     5    58 1   
    14     5    88 1   
    15     6     7 ar  
    16     6    18 ar  
    17     7    15 ar  
    18     7    59 1   
    19     8     9 1   
    20     8    13 ar  
    21     9    10 1   
    22     9    11 1   
    23     9    41 1   
    24    10    43 1   
    25    10    51 2   
    26    11    60 1   
    27    11    61 1   
    28    11    89 1   
    29    12    41 1   
    30    12    42 2   
    31    12    43 1   
    32    13    14 ar  
    33    13    62 1   
    34    14    63 1   
    35    15    16 ar  
    36    15    64 1   
    37    16    17 ar  
    38    16    53 1   
    39    17    18 ar  
    40    17    22 1   
    41    18    65 1   
    42    19    66 1   
    43    19    67 1   
    44    19    68 1   
    45    19    89 1   
    46    20    69 1   
    47    20    70 1   
    48    20    71 1   
    49    20    89 1   
    50    21    25 1   
    51    21    49 2   
    52    22    44 2   
    53    22    46 1   
    54    23    44 1   
    55    23    45 2   
    56    23    72 1   
    57    24    36 1   
    58    24    37 1   
    59    24    38 1   
    60    24    89 1   
    61    25    47 2   
    62    25    74 1   
    63    26    27 1   
    64    26    28 1   
    65    26    48 1   
    66    26    75 1   
    67    27    28 1   
    68    27    76 1   
    69    27    77 1   
    70    28    78 1   
    71    28    79 1   
    72    29    50 1   
    73    29    52 2   
    74    29    88 1   
    75    30    31 1   
    76    30    32 1   
    77    30    33 1   
    78    30    50 1   
    79    31    34 1   
    80    31    35 1   
    81    31    80 1   
    82    32    33 1   
    83    32    81 1   
    84    32    82 1   
    85    33    83 1   
    86    33    84 1   
    87    39    90 1   
    88    40    90 1   
    89    41    85 1   
    90    42    86 1   
    91    45    46 1   
    92    46    90 1   
    93    47    48 1   
    94    48    49 1   
    95    50    87 1   
    96    73    90 1   
@<TRIPOS>SUBSTRUCTURE
     1 A1A         1 TEMP              0 ****  ****    0 ROOT
