@<TRIPOS>MOLECULE
A1A
   19    19     1     0     0
SMALL
abcg2


@<TRIPOS>ATOM
      1 C01        -64.7200    24.8390   -16.1710 c3         1 A1A       0.038900
      2 C03        -62.6360    23.0430   -16.5170 ca         1 A1A       0.490300
      3 C05        -60.6660    24.1980   -16.4770 ca         1 A1A       0.366900
      4 C06        -59.9080    23.0440   -16.5350 ca         1 A1A      -0.180000
      5 C07        -60.5810    21.8330   -16.5810 ca         1 A1A      -0.020000
      6 C08        -61.9670    21.8100   -16.5970 ca         1 A1A      -0.196600
      7 C09        -62.6420    20.4710   -16.6100 c          1 A1A       0.626700
      8 N04        -61.9930    24.1960   -16.4580 nb         1 A1A      -0.699000
      9 N11        -63.6150    20.3140   -17.5170 nt         1 A1A      -0.597000
     10 O10        -62.2830    19.5960   -15.8400 o          1 A1A      -0.594100
     11 S02        -64.4000    23.0860   -16.4350 ss         1 A1A      -0.375300
     12 H011       -65.8010    24.9240   -16.0770 h1         1 A1A       0.070367
     13 H012       -64.2510    25.1950   -15.2570 h1         1 A1A       0.070367
     14 H013       -64.3850    25.4370   -17.0140 h1         1 A1A       0.070367
     15 H051       -60.1900    25.1710   -16.4370 h4         1 A1A       0.022100
     16 H061       -58.8280    23.0890   -16.5370 ha         1 A1A       0.131000
     17 H071       -60.0290    20.9030   -16.6160 ha         1 A1A       0.136000
     18 H111       -64.1060    19.4360   -17.5830 hn         1 A1A       0.320000
     19 H112       -63.8140    21.0060   -18.2200 hn         1 A1A       0.320000
@<TRIPOS>BOND
     1     1    11 1   
     2     1    12 1   
     3     1    13 1   
     4     1    14 1   
     5     2     6 ar  
     6     2     8 ar  
     7     2    11 1   
     8     3     4 ar  
     9     3     8 ar  
    10     3    15 1   
    11     4     5 ar  
    12     4    16 1   
    13     5     6 ar  
    14     5    17 1   
    15     6     7 1   
    16     7     9 1   
    17     7    10 2   
    18     9    18 1   
    19     9    19 1   
@<TRIPOS>SUBSTRUCTURE
     1 A1A         1 TEMP              0 ****  ****    0 ROOT
