@<TRIPOS>MOLECULE
A1A
   47    46     1     0     0
SMALL
No Charge or Current Charge


@<TRIPOS>ATOM
      1 C01        -13.5060   -11.5600    28.9800 c3         1 A1A      -0.115100
      2 C02        -14.1110   -12.6970    29.8210 c3         1 A1A       0.107000
      3 C03        -16.2370   -13.3500    28.6240 c          1 A1A       0.619100
      4 C04        -16.8860   -14.4250    27.6930 c3         1 A1A       0.016700
      5 C05        -17.9440   -15.2990    28.4160 c3         1 A1A      -0.040400
      6 C06        -19.2350   -14.5470    28.8270 c3         1 A1A      -0.425400
      7 C07        -21.0400   -16.7480    28.2630 c3         1 A1A      -0.397400
      8 C08        -22.3910   -17.5130    28.4760 c3         1 A1A      -0.152700
      9 C09        -22.7490   -18.3770    27.2330 c3         1 A1A      -0.026400
     10 C10        -24.1500   -19.0380    27.2960 c3         1 A1A      -0.190400
     11 C11        -24.4450   -19.7890    25.9840 c          1 A1A       0.710000
     12 C12        -22.4190   -18.3480    29.7970 c          1 A1A       0.737000
     13 C14        -14.2360   -16.0920    25.4230 c3         1 A1A      -0.179100
     14 N01        -14.9350   -13.5980    29.0140 ns         1 A1A      -0.500900
     15 N02        -15.8640   -15.3040    27.0680 ns         1 A1A      -0.497900
     16 O01        -16.8120   -12.3180    28.9470 o          1 A1A      -0.611100
     17 O02        -19.9350   -16.3340    30.7740 o          1 A1A      -0.829500
     18 O03        -21.6790   -14.7140    30.0210 o          1 A1A      -0.829500
     19 O04        -24.1050   -20.9580    25.8940 o          1 A1A      -0.788000
     20 O05        -24.9790   -19.1760    25.0720 o          1 A1A      -0.788000
     21 O06        -21.6430   -19.2860    29.9220 o          1 A1A      -0.767500
     22 O07        -23.2380   -18.0470    30.6540 o          1 A1A      -0.767500
     23 O08        -15.3240   -13.9400    25.3240 o          1 A1A      -0.626100
     24 P01        -20.5330   -15.5890    29.6220 p5         1 A1A       1.397000
     25 H1         -12.8810   -10.9150    29.6080 hc         1 A1A       0.028700
     26 H2         -12.8830   -11.9650    28.1740 hc         1 A1A       0.028700
     27 H3         -14.2950   -10.9430    28.5320 hc         1 A1A       0.028700
     28 H4         -14.7220   -12.2760    30.6300 h1         1 A1A       0.045700
     29 H5         -13.3010   -13.2810    30.2780 h1         1 A1A       0.045700
     30 H6         -17.3930   -13.8730    26.8910 h1         1 A1A       0.087700
     31 H7         -18.2230   -16.1220    27.7470 hc         1 A1A       0.053700
     32 H8         -17.4870   -15.7590    29.3020 hc         1 A1A       0.053700
     33 H9         -19.0030   -13.7560    29.5460 hc         1 A1A       0.040700
     34 H10        -19.6940   -14.0780    27.9500 hc         1 A1A       0.040700
     35 H11        -20.2260   -17.4690    28.1280 hc         1 A1A       0.013200
     36 H12        -21.0980   -16.1510    27.3460 hc         1 A1A       0.013200
     37 H13        -23.1710   -16.7460    28.5630 hc         1 A1A       0.031700
     38 H14        -21.9890   -19.1560    27.0990 hc         1 A1A       0.009200
     39 H15        -22.7060   -17.7420    26.3400 hc         1 A1A       0.009200
     40 H16        -24.8640   -18.2170    27.4320 hc         1 A1A       0.025700
     41 H17        -24.1200   -19.7420    28.1360 hc         1 A1A       0.025700
     42 H18        -13.5370   -16.3460    26.2290 hc         1 A1A       0.047700
     43 H19        -14.7960   -17.0260    25.3010 hc         1 A1A       0.047700
     44 H20        -13.7070   -15.8150    24.5040 hc         1 A1A       0.047700
     45 H21        -14.5240   -14.4590    28.6760 hn         1 A1A       0.309500
     46 H22        -15.7000   -16.2240    27.4630 hn         1 A1A       0.326500
     47 C13        -15.1840   -15.0030    25.9090 c          1 A1A       0.585100
@<TRIPOS>BOND
     1     1     2 1   
     2     1    25 1   
     3     1    26 1   
     4     1    27 1   
     5     2    14 1   
     6     2    28 1   
     7     2    29 1   
     8     3     4 1   
     9     3    14 1   
    10     3    16 2   
    11     4     5 1   
    12     4    15 1   
    13     4    30 1   
    14     5     6 1   
    15     5    31 1   
    16     5    32 1   
    17     6    24 1   
    18     6    33 1   
    19     6    34 1   
    20     7     8 1   
    21     7    24 1   
    22     7    35 1   
    23     7    36 1   
    24     8     9 1   
    25     8    12 1   
    26     8    37 1   
    27     9    10 1   
    28     9    38 1   
    29     9    39 1   
    30    10    11 1   
    31    10    40 1   
    32    10    41 1   
    33    11    19 1   
    34    11    20 1   
    35    12    21 1   
    36    12    22 1   
    37    13    42 1   
    38    13    43 1   
    39    13    44 1   
    40    13    47 1   
    41    14    45 1   
    42    15    46 1   
    43    15    47 1   
    44    17    24 1   
    45    18    24 1   
    46    23    47 2   
@<TRIPOS>SUBSTRUCTURE
     1 A1A         1 TEMP              0 ****  ****    0 ROOT
