@<TRIPOS>MOLECULE
A1A
   49    51     1     0     0
SMALL
abcg2


@<TRIPOS>ATOM
      1 C4          23.3380   -49.1890    -8.7150 c6         1 A1A      -0.088400
      2 C5          21.8500   -49.2970    -9.0610 c6         1 A1A       0.162000
      3 C7          22.4120   -50.8280   -10.9020 c6         1 A1A       0.092000
      4 C10         20.4880   -47.5320   -10.8640 c          1 A1A       0.532100
      5 N12         21.1810   -46.3760   -10.9820 ns         1 A1A      -0.131000
      6 C13         20.7600   -45.0770   -10.6880 ca         1 A1A      -0.084000
      7 C17         21.3360   -42.7550   -10.4840 ca         1 A1A      -0.180600
      8 C22         21.0480   -50.2910    -8.2330 ca         1 A1A      -0.100300
      9 C24         20.7110   -51.6130    -6.2350 ca         1 A1A      -0.111500
     10 C26         19.0210   -51.5770    -7.9300 ca         1 A1A      -0.111500
     11 C1          24.6220   -49.7730   -11.5450 c3         1 A1A      -0.084100
     12 C2          23.9110   -50.7520   -10.6180 c6         1 A1A      -0.080700
     13 C3          24.1230   -50.4250    -9.1370 c6         1 A1A      -0.072400
     14 N6          21.7350   -49.6060   -10.4850 n          1 A1A      -0.382800
     15 O9          21.2710   -48.9000   -12.6010 o          1 A1A      -0.575100
     16 O11         19.3430   -47.6400   -10.4770 o          1 A1A      -0.552100
     17 C14         19.4530   -44.7250   -10.3410 ca         1 A1A       0.340900
     18 N15         19.1050   -43.4760   -10.0640 nb         1 A1A      -0.651000
     19 C16         20.0110   -42.5150   -10.1320 ca         1 A1A       0.336900
     20 C18         21.7080   -44.0620   -10.7480 ca         1 A1A      -0.083000
     21 C19         22.3870   -41.6900   -10.5420 c          1 A1A       0.622700
     22 N20         21.9510   -40.4360   -10.7290 nt         1 A1A      -0.600000
     23 O21         23.5670   -41.9760   -10.4120 o          1 A1A      -0.601100
     24 C23         21.4910   -50.7510    -6.9960 ca         1 A1A      -0.095500
     25 C25         19.4740   -52.0330    -6.6990 ca         1 A1A      -0.103000
     26 C27         19.7990   -50.7150    -8.6860 ca         1 A1A      -0.095500
     27 H1          23.4650   -48.9890    -7.6500 hc         1 A1A       0.050200
     28 H2          23.7230   -48.3040    -9.2270 hc         1 A1A       0.050200
     29 H3          21.4120   -48.3130    -8.8800 h1         1 A1A       0.068700
     30 H4          22.2170   -50.9970   -11.9590 h1         1 A1A       0.069700
     31 H5          21.9730   -51.6640   -10.3510 h1         1 A1A       0.069700
     32 H6          22.1380   -46.4540   -11.3000 hn         1 A1A       0.165000
     33 H7          21.0790   -51.9590    -5.2780 ha         1 A1A       0.115000
     34 H8          18.0550   -51.8930    -8.3040 ha         1 A1A       0.115000
     35 H9          25.6940   -49.7650   -11.3430 hc         1 A1A       0.035700
     36 H10         24.4850   -50.0530   -12.5900 hc         1 A1A       0.035700
     37 H11         24.2620   -48.7500   -11.4310 hc         1 A1A       0.035700
     38 H12         24.3140   -51.7510   -10.8090 hc         1 A1A       0.057700
     39 H13         23.8130   -51.2850    -8.5360 hc         1 A1A       0.048700
     40 H14         25.1860   -50.2730    -8.9350 hc         1 A1A       0.048700
     41 H15         18.6690   -45.4640   -10.2810 h4         1 A1A       0.056100
     42 H16         19.6660   -41.5210    -9.8700 h4         1 A1A       0.021100
     43 H17         22.7360   -44.2880   -11.0060 ha         1 A1A       0.140000
     44 H18         22.6190   -39.6850   -10.7940 hn         1 A1A       0.317000
     45 H19         21.0020   -40.2200   -10.9800 hn         1 A1A       0.317000
     46 H20         22.4520   -50.4450    -6.6040 ha         1 A1A       0.119000
     47 H21         18.8680   -52.7080    -6.1080 ha         1 A1A       0.114000
     48 H22         19.4220   -50.3680    -9.6400 ha         1 A1A       0.119000
     49 C8          21.2400   -48.7550   -11.3900 c          1 A1A       0.529100
@<TRIPOS>BOND
     1     1     2 1   
     2     1    13 1   
     3     1    27 1   
     4     1    28 1   
     5     2     8 1   
     6     2    14 1   
     7     2    29 1   
     8     3    12 1   
     9     3    14 1   
    10     3    30 1   
    11     3    31 1   
    12     4     5 1   
    13     4    16 2   
    14     4    49 1   
    15     5     6 1   
    16     5    32 1   
    17     6    17 ar  
    18     6    20 ar  
    19     7    19 ar  
    20     7    20 ar  
    21     7    21 1   
    22     8    24 ar  
    23     8    26 ar  
    24     9    24 ar  
    25     9    25 ar  
    26     9    33 1   
    27    10    25 ar  
    28    10    26 ar  
    29    10    34 1   
    30    11    12 1   
    31    11    35 1   
    32    11    36 1   
    33    11    37 1   
    34    12    13 1   
    35    12    38 1   
    36    13    39 1   
    37    13    40 1   
    38    14    49 1   
    39    15    49 2   
    40    17    18 ar  
    41    17    41 1   
    42    18    19 ar  
    43    19    42 1   
    44    20    43 1   
    45    21    22 1   
    46    21    23 2   
    47    22    44 1   
    48    22    45 1   
    49    24    46 1   
    50    25    47 1   
    51    26    48 1   
@<TRIPOS>SUBSTRUCTURE
     1 A1A         1 TEMP              0 ****  ****    0 ROOT
