@<TRIPOS>MOLECULE
A1A
   51    53     1     0     0
SMALL
No Charge or Current Charge


@<TRIPOS>ATOM
      1 C4          22.8340   -48.6310    -7.9780 c6         1 A1A      -0.090400
      2 C5          21.4410   -48.8720    -8.6360 c6         1 A1A       0.172000
      3 C7          22.5470   -50.1040   -10.5060 c6         1 A1A       0.090000
      4 C10         20.2000   -46.8590   -10.5540 c          1 A1A       0.528100
      5 N12         20.7920   -45.6160   -10.7590 ns         1 A1A      -0.126000
      6 C13         20.3520   -44.2930   -10.4560 ca         1 A1A      -0.151000
      7 C20         21.1930   -43.2200   -10.8050 ca         1 A1A      -0.069000
      8 C21         20.6090   -50.0530    -8.0770 ca         1 A1A      -0.134300
      9 C22         20.9600   -50.7560    -6.8990 ca         1 A1A      -0.054500
     10 C24         19.0010   -52.1840    -7.1290 ca         1 A1A       0.143100
     11 C26         18.6330   -51.4880    -8.2870 ca         1 A1A      -0.178500
     12 C1          24.7100   -48.7140   -10.6020 c3         1 A1A      -0.084100
     13 C2          23.9650   -49.8940    -9.9140 c6         1 A1A      -0.078700
     14 C3          23.8700   -49.7210    -8.3730 c6         1 A1A      -0.071400
     15 N6          21.6300   -48.9980   -10.1110 n          1 A1A      -0.380800
     16 O9          21.3850   -48.1770   -12.2500 o          1 A1A      -0.591100
     17 O11         19.0920   -47.0280   -10.0440 o          1 A1A      -0.569100
     18 C14         19.1180   -43.9990    -9.8210 ca         1 A1A       0.394900
     19 N15         18.7120   -42.7390    -9.5370 nb         1 A1A      -0.730000
     20 C16         19.5250   -41.7510    -9.8830 ca         1 A1A       0.586900
     21 N17         18.9950   -40.5720    -9.5330 nv         1 A1A      -1.048900
     22 C18         20.7740   -41.9090   -10.5130 ca         1 A1A      -0.172300
     23 C19         21.6560   -40.7170   -10.8750 c3         1 A1A      -0.036800
     24 C23         20.1620   -51.8170    -6.4340 ca         1 A1A      -0.178500
     25 O25         18.2240   -53.2090    -6.6810 oh         1 A1A      -0.532100
     26 C27         19.4280   -50.4280    -8.7560 ca         1 A1A      -0.054500
     27 H1          23.2080   -47.6510    -8.3000 hc         1 A1A       0.048200
     28 H2          22.7450   -48.5540    -6.8870 hc         1 A1A       0.048200
     29 H3          20.8530   -47.9720    -8.4120 h1         1 A1A       0.075700
     30 H4          22.6120   -50.1960   -11.5990 h1         1 A1A       0.068200
     31 H5          22.1370   -51.0550   -10.1350 h1         1 A1A       0.068200
     32 H6          21.7010   -45.6580   -11.2040 hn         1 A1A       0.167000
     33 H7          22.1490   -43.4000   -11.2920 ha         1 A1A       0.114000
     34 H8          21.8460   -50.4970    -6.3270 ha         1 A1A       0.120000
     35 H9          17.7300   -51.7670    -8.8230 ha         1 A1A       0.122000
     36 H10         25.7200   -48.5920   -10.1910 hc         1 A1A       0.035700
     37 H11         24.8140   -48.8920   -11.6790 hc         1 A1A       0.035700
     38 H12         24.1820   -47.7620   -10.4760 hc         1 A1A       0.035700
     39 H13         24.5630   -50.7910   -10.1250 hc         1 A1A       0.055700
     40 H14         23.5900   -50.6830    -7.9230 hc         1 A1A       0.045700
     41 H15         24.8550   -49.4700    -7.9570 hc         1 A1A       0.045700
     42 H16         18.4240   -44.7810    -9.5220 h4         1 A1A       0.041100
     43 H17         18.2190   -40.6270    -8.8850 hn         1 A1A       0.468500
     44 H18         19.6240   -39.7850    -9.4270 hn         1 A1A       0.468500
     45 H19         21.1190   -40.0080   -11.5150 hc         1 A1A       0.041700
     46 H20         21.9830   -40.1810    -9.9760 hc         1 A1A       0.041700
     47 H21         22.5570   -41.0290   -11.4170 hc         1 A1A       0.041700
     48 H22         20.4520   -52.3460    -5.5290 ha         1 A1A       0.122000
     49 H23         18.6310   -53.5730    -5.8660 ho         1 A1A       0.464000
     50 H24         19.1190   -49.8980    -9.6540 ha         1 A1A       0.120000
     51 C8          21.1170   -48.0660   -11.0540 c          1 A1A       0.524100
@<TRIPOS>BOND
     1     1     2 1   
     2     1    14 1   
     3     1    27 1   
     4     1    28 1   
     5     2     8 1   
     6     2    15 1   
     7     2    29 1   
     8     3    13 1   
     9     3    15 1   
    10     3    30 1   
    11     3    31 1   
    12     4     5 1   
    13     4    17 2   
    14     4    51 1   
    15     5     6 1   
    16     5    32 1   
    17     6     7 ar  
    18     6    18 ar  
    19     7    22 ar  
    20     7    33 1   
    21     8     9 ar  
    22     8    26 ar  
    23     9    24 ar  
    24     9    34 1   
    25    10    11 ar  
    26    10    24 ar  
    27    10    25 1   
    28    11    26 ar  
    29    11    35 1   
    30    12    13 1   
    31    12    36 1   
    32    12    37 1   
    33    12    38 1   
    34    13    14 1   
    35    13    39 1   
    36    14    40 1   
    37    14    41 1   
    38    15    51 1   
    39    16    51 2   
    40    18    19 ar  
    41    18    42 1   
    42    19    20 ar  
    43    20    21 1   
    44    20    22 ar  
    45    21    43 1   
    46    21    44 1   
    47    22    23 1   
    48    23    45 1   
    49    23    46 1   
    50    23    47 1   
    51    24    48 1   
    52    25    49 1   
    53    26    50 1   
@<TRIPOS>SUBSTRUCTURE
     1 A1A         1 TEMP              0 ****  ****    0 ROOT
