@<TRIPOS>MOLECULE
A1A
   83    86     1     0     0
SMALL
No Charge or Current Charge


@<TRIPOS>ATOM
      1 C10        -22.8870   -14.4280    34.3440 c3         1 A1A      -0.028100
      2 C13        -25.8150   -11.9490    34.4140 ca         1 A1A      -0.112000
      3 C15        -24.4810   -11.6170    36.4200 ca         1 A1A      -0.112000
      4 C04        -19.2390    -9.3420    35.8530 c3         1 A1A       0.237600
      5 C06        -20.0130   -11.0980    34.1520 cc         1 A1A       0.194300
      6 C09        -21.9530   -13.9690    33.1920 c3         1 A1A      -0.057700
      7 C11        -23.8340   -13.3240    34.8010 ca         1 A1A      -0.094300
      8 C12        -24.9420   -12.9730    34.0050 ca         1 A1A      -0.116500
      9 C14        -25.5840   -11.2710    35.6220 ca         1 A1A      -0.127000
     10 C16        -23.6070   -12.6390    36.0110 ca         1 A1A      -0.116500
     11 C07        -21.2160   -11.5890    33.7520 cd         1 A1A      -0.225000
     12 C17        -21.2440   -15.1410    32.4770 c          1 A1A       0.734000
     13 C22        -19.3510    -9.4380    39.2030 c3         1 A1A      -0.082700
     14 C23        -19.2610   -10.2250    40.5200 cc         1 A1A      -0.297600
     15 C25        -19.7410   -11.2900    42.7230 cc         1 A1A      -0.206300
     16 C26        -20.2500   -11.5710    44.1190 c3         1 A1A      -0.055100
     17 C27        -19.3110   -11.0280    45.2140 c3         1 A1A       0.258600
     18 C37        -18.8730   -12.0570    41.9640 cd         1 A1A      -0.183300
     19 C38        -18.2380   -13.3690    42.3870 c3         1 A1A      -0.014800
     20 C41        -16.2700   -12.2330    40.1120 ca         1 A1A      -0.242300
     21 C42        -15.6250   -13.4810    40.0500 ca         1 A1A       0.129900
     22 C44        -13.6790   -12.5230    40.8020 ca         1 A1A       0.161300
     23 C45        -12.2200   -12.6860    41.1920 c3         1 A1A      -0.124400
     24 C47        -15.4870   -11.1470    40.5440 ca         1 A1A       0.399900
     25 C49        -19.8930    -8.0000    39.4470 c3         1 A1A      -0.114100
     26 N08        -20.9890   -12.9400    33.6230 na         1 A1A       0.188800
     27 N20        -19.6850   -13.2320    33.9450 nd         1 A1A      -0.196800
     28 N21        -19.0940   -12.1040    34.2490 nc         1 A1A      -0.378000
     29 N39        -18.6240   -11.4550    40.7220 na         1 A1A       0.041300
     30 N43        -14.3310   -13.6320    40.3960 nb         1 A1A      -0.249000
     31 N46        -14.1990   -11.2820    40.8880 nb         1 A1A      -0.296000
     32 N48        -15.9580    -9.8810    40.6210 nv         1 A1A      -1.041900
     33 O03        -20.4200    -9.3150    36.6620 os         1 A1A      -0.598400
     34 O18        -21.0260   -15.0280    31.2780 o          1 A1A      -0.719000
     35 O19        -20.9980   -16.1650    33.1020 o          1 A1A      -0.719000
     36 O28        -20.0740   -10.8890    46.4110 os         1 A1A      -0.602400
     37 O30        -20.3200    -9.9380    48.8010 o          1 A1A      -0.889500
     38 O31        -20.0230    -8.4160    46.7600 os         1 A1A      -0.743800
     39 O33        -21.8090    -6.7500    46.4280 o          1 A1A      -0.927500
     40 O34        -22.5190    -9.0310    46.7470 o          1 A1A      -0.927500
     41 O35        -21.4020    -8.3640    44.6770 o          1 A1A      -0.927500
     42 O36        -18.1530    -9.8220    47.6900 o          1 A1A      -0.889500
     43 O50        -17.9920    -9.2050    38.7460 oh         1 A1A      -0.691000
     44 P02        -20.5720   -10.2860    37.9480 p5         1 A1A       1.388400
     45 P29        -19.6330    -9.7690    47.4830 p5         1 A1A       1.483800
     46 P32        -21.4580    -8.1720    46.1530 p5         1 A1A       1.394900
     47 S24        -20.2640    -9.8120    41.9100 ss         1 A1A       0.817000
     48 H1         -23.4790   -15.2850    34.0000 hc         1 A1A       0.064200
     49 H2         -22.2810   -14.7940    35.1820 hc         1 A1A       0.064200
     50 H3         -26.6680   -11.6830    33.7940 ha         1 A1A       0.128500
     51 H4         -24.3010   -11.0910    37.3550 ha         1 A1A       0.128500
     52 H5         -18.5100   -10.0820    36.2090 h1         1 A1A       0.013700
     53 H6         -18.7570    -8.3560    35.8780 h1         1 A1A       0.013700
     54 H7         -18.7860    -9.4070    33.7500 hc         1 A1A       0.022200
     55 H8         -20.4540    -9.0010    34.0940 hc         1 A1A       0.022200
     56 H9         -22.5900   -13.5010    32.4310 h1         1 A1A       0.036700
     57 H10        -25.1270   -13.4930    33.0680 ha         1 A1A       0.112000
     58 H11        -26.2580   -10.4790    35.9390 ha         1 A1A       0.108000
     59 H12        -22.7510   -12.8940    36.6320 ha         1 A1A       0.112000
     60 H13        -22.1640   -11.1090    33.5500 h4         1 A1A       0.142000
     61 H14        -21.2380   -11.1120    44.2430 hc         1 A1A       0.089700
     62 H15        -20.4040   -12.6450    44.2770 hc         1 A1A       0.089700
     63 H16        -18.4700   -11.7190    45.3580 h1         1 A1A       0.002700
     64 H17        -18.9080   -10.0580    44.8930 h1         1 A1A       0.002700
     65 H18        -17.1680   -13.2400    42.5860 hc         1 A1A       0.041367
     66 H19        -18.6860   -13.7700    43.3020 hc         1 A1A       0.041367
     67 H20        -18.3510   -14.1410    41.6170 hc         1 A1A       0.041367
     68 H21        -17.8110   -11.6020    38.7560 h1         1 A1A       0.104700
     69 H22        -18.1560   -13.1190    39.5340 h1         1 A1A       0.104700
     70 H23        -16.1500   -14.3780    39.7250 h4         1 A1A       0.017100
     71 H24        -11.9360   -11.9830    41.9850 hc         1 A1A       0.041700
     72 H25        -12.0120   -13.6970    41.5620 hc         1 A1A       0.041700
     73 H26        -11.5650   -12.5030    40.3320 hc         1 A1A       0.041700
     74 H27        -19.2930    -7.4720    40.1990 hc         1 A1A       0.053033
     75 H28        -19.8620    -7.4070    38.5250 hc         1 A1A       0.053033
     76 H29        -20.9370    -8.0090    39.7840 hc         1 A1A       0.053033
     77 H30        -15.2790    -9.1310    40.6790 hn         1 A1A       0.498500
     78 H31        -16.8140    -9.6690    40.0920 hn         1 A1A       0.498500
     79 H37        -18.0350    -8.5620    38.0040 ho         1 A1A       0.434000
     80 C40        -17.7470   -12.1180    39.7170 c3         1 A1A       0.108900
     81 O01        -20.1670   -11.6900    37.6320 o          1 A1A      -0.782500
     82 O51        -21.9630   -10.2180    38.4920 o          1 A1A      -0.782500
     83 C05        -19.6340    -9.6630    34.3970 c3         1 A1A      -0.082700
@<TRIPOS>BOND
     1     1     6 1   
     2     1     7 1   
     3     1    48 1   
     4     1    49 1   
     5     2     8 ar  
     6     2     9 ar  
     7     2    50 1   
     8     3     9 ar  
     9     3    10 ar  
    10     3    51 1   
    11     4    33 1   
    12     4    52 1   
    13     4    53 1   
    14     4    83 1   
    15     5    11 2   
    16     5    28 1   
    17     5    83 1   
    18     6    12 1   
    19     6    26 1   
    20     6    56 1   
    21     7     8 ar  
    22     7    10 ar  
    23     8    57 1   
    24     9    58 1   
    25    10    59 1   
    26    11    26 1   
    27    11    60 1   
    28    12    34 1   
    29    12    35 1   
    30    13    14 1   
    31    13    25 1   
    32    13    43 1   
    33    13    44 1   
    34    14    29 2   
    35    14    47 1   
    36    15    16 1   
    37    15    18 2   
    38    15    47 1   
    39    16    17 1   
    40    16    61 1   
    41    16    62 1   
    42    17    36 1   
    43    17    63 1   
    44    17    64 1   
    45    18    19 1   
    46    18    29 1   
    47    19    65 1   
    48    19    66 1   
    49    19    67 1   
    50    20    21 ar  
    51    20    24 ar  
    52    20    80 1   
    53    21    30 ar  
    54    21    70 1   
    55    22    23 1   
    56    22    30 ar  
    57    22    31 ar  
    58    23    71 1   
    59    23    72 1   
    60    23    73 1   
    61    24    31 ar  
    62    24    32 1   
    63    25    74 1   
    64    25    75 1   
    65    25    76 1   
    66    26    27 1   
    67    27    28 2   
    68    29    80 1   
    69    32    77 1   
    70    32    78 1   
    71    33    44 1   
    72    36    45 1   
    73    37    45 1   
    74    38    45 1   
    75    38    46 1   
    76    39    46 1   
    77    40    46 1   
    78    41    46 1   
    79    42    45 1   
    80    43    79 1   
    81    44    81 1   
    82    44    82 1   
    83    54    83 1   
    84    55    83 1   
    85    68    80 1   
    86    69    80 1   
@<TRIPOS>SUBSTRUCTURE
     1 A1A         1 TEMP              0 ****  ****    0 ROOT
