@<TRIPOS>MOLECULE
A1A
  103   108     1     0     0
SMALL
No Charge or Current Charge


@<TRIPOS>ATOM
      1 O1          -6.5720    36.6450     3.1550 o          1 A1A      -0.729000
      2 C7         -11.2080    40.5020    -0.5410 ca         1 A1A      -0.122000
      3 O2          -7.7980    31.5300    -4.9180 o          1 A1A      -0.729000
      4 C6          -9.9380    40.7110    -1.1100 ca         1 A1A      -0.060967
      5 C1         -10.4520    44.3650    -4.7500 c5         1 A1A      -0.104400
      6 N1          -8.9310    36.1300    -1.9130 n3         1 A1A      -0.720600
      7 C5          -9.5290    42.1010    -1.5820 c3         1 A1A      -0.003433
      8 C4         -10.1260    42.4700    -2.9680 c3         1 A1A      -0.187033
      9 C3         -10.4990    45.0330    -2.4920 c5         1 A1A       0.124133
     10 C2         -10.4880    45.9200    -4.6670 c5         1 A1A       0.129800
     11 C41         -9.6410    41.4800    -4.0570 c          1 A1A       0.719333
     12 O4         -10.4790    40.7980    -4.6300 o          1 A1A      -0.729000
     13 C           -9.8450    43.9470    -3.3820 c5         1 A1A      -0.061033
     14 N          -10.2170    46.2710    -3.2490 n7         1 A1A      -0.855733
     15 C11         -9.0490    39.6250    -1.2360 ca         1 A1A      -0.077000
     16 C10         -9.4230    38.3380    -0.8010 ca         1 A1A      -0.058300
     17 C9         -10.6970    38.1420    -0.2340 ca         1 A1A      -0.085333
     18 C8         -11.5870    39.2220    -0.1050 ca         1 A1A      -0.137333
     19 C12         -8.4630    37.1600    -0.9460 c3         1 A1A       0.200767
     20 C27         -9.1100    36.6670    -3.2890 c3         1 A1A       0.200767
     21 C28         -9.8050    35.6930    -4.2360 ca         1 A1A      -0.058300
     22 C33         -9.1100    35.1360    -5.3290 ca         1 A1A      -0.077000
     23 C32         -9.7480    34.2310    -6.1980 ca         1 A1A      -0.060967
     24 C34         -8.9920    33.6310    -7.3790 c3         1 A1A      -0.003433
     25 C35         -8.4870    32.1880    -7.1030 c3         1 A1A      -0.187033
     26 C37         -7.8750    31.5080    -8.3660 c5         1 A1A      -0.061033
     27 C40         -8.8600    31.2990    -9.5640 c5         1 A1A       0.124133
     28 N3          -8.5170    29.9880   -10.1840 n7         1 A1A      -0.855733
     29 C39         -7.2070    29.6180    -9.6130 c5         1 A1A       0.129800
     30 C38         -7.3540    30.0630    -8.1450 c5         1 A1A      -0.104400
     31 C36         -7.4940    32.1700    -5.9140 c          1 A1A       0.719333
     32 O3          -6.4360    32.7740    -6.0250 o          1 A1A      -0.729000
     33 C31        -11.0940    33.8840    -5.9700 ca         1 A1A      -0.122000
     34 C30        -11.7920    34.4360    -4.8840 ca         1 A1A      -0.137333
     35 C29        -11.1500    35.3370    -4.0190 ca         1 A1A      -0.085333
     36 C14         -8.1080    34.1980    -0.5170 ca         1 A1A      -0.058300
     37 C19         -6.9270    34.1290     0.2490 ca         1 A1A      -0.077000
     38 C18         -6.9260    33.4980     1.5090 ca         1 A1A      -0.060967
     39 C17         -8.1190    32.9330     2.0000 ca         1 A1A      -0.122000
     40 C16         -9.2990    32.9990     1.2410 ca         1 A1A      -0.137333
     41 C15         -9.2930    33.6300    -0.0140 ca         1 A1A      -0.085333
     42 C20         -5.6470    33.4250     2.3350 c3         1 A1A      -0.003433
     43 C21         -5.5920    34.4930     3.4610 c3         1 A1A      -0.187033
     44 C22         -5.6280    35.9230     2.8660 c          1 A1A       0.719333
     45 O           -4.7030    36.2850     2.1530 o          1 A1A      -0.729000
     46 C23         -4.3740    34.3060     4.4170 c5         1 A1A      -0.061033
     47 C26         -4.3490    32.9630     5.2210 c5         1 A1A       0.124133
     48 N2          -3.8160    33.2790     6.5770 n7         1 A1A      -0.855733
     49 C25         -3.2450    34.6360     6.4640 c5         1 A1A       0.129800
     50 C24         -4.2720    35.3480     5.5620 c5         1 A1A      -0.104400
     51 H21        -11.9030    41.3320    -0.4390 ha         1 A1A       0.079333
     52 H14         -9.8590    44.0100    -5.6000 hc         1 A1A       0.059700
     53 H20         -8.4360    42.1870    -1.6210 hc         1 A1A       0.022367
     54 H19         -9.8590    42.8360    -0.8380 hc         1 A1A       0.022367
     55 H3         -11.2140    42.3540    -2.8860 hc         1 A1A       0.031700
     56 H18        -10.0630    45.0720    -1.4840 h1         1 A1A       0.037700
     57 H17        -11.5820    44.8700    -2.3920 h1         1 A1A       0.037700
     58 H16         -9.7370    46.3810    -5.3230 h1         1 A1A       0.026867
     59 H15        -11.4740    46.2940    -4.9760 h1         1 A1A       0.026867
     60 H           -8.7550    44.0750    -3.3960 hc         1 A1A       0.059033
     61 H2          -9.2110    46.4570    -3.1630 hn         1 A1A       0.381333
     62 H24         -8.0680    39.7800    -1.6800 ha         1 A1A       0.124667
     63 H23        -10.9960    37.1510     0.0990 ha         1 A1A       0.116333
     64 H22        -12.5710    39.0650     0.3310 ha         1 A1A       0.079000
     65 H26         -8.3430    36.7190     0.0530 h1         1 A1A       0.056033
     66 H25         -7.4730    37.5330    -1.2440 h1         1 A1A       0.056033
     67 H42         -8.1360    36.9510    -3.7110 h1         1 A1A       0.056033
     68 H41         -9.7190    37.5810    -3.2660 h1         1 A1A       0.056033
     69 H46         -8.0690    35.4030    -5.4980 ha         1 A1A       0.124667
     70 H47         -8.1430    34.2680    -7.6540 hc         1 A1A       0.022367
     71 H48         -9.6530    33.6230    -8.2540 hc         1 A1A       0.022367
     72 H9          -9.3610    31.5950    -6.8040 hc         1 A1A       0.031700
     73 H12         -7.0430    32.1440    -8.6930 hc         1 A1A       0.059033
     74 H53         -8.7560    32.1170   -10.2910 h1         1 A1A       0.037700
     75 H54         -9.9080    31.2900    -9.2310 h1         1 A1A       0.037700
     76 H10         -9.2020    29.3000    -9.8480 hn         1 A1A       0.381333
     77 H51         -7.0110    28.5410    -9.7090 h1         1 A1A       0.026867
     78 H52         -6.3940    30.1620   -10.1150 h1         1 A1A       0.026867
     79 H49         -8.0730    29.4400    -7.5990 hc         1 A1A       0.059700
     80 H50         -6.4030    30.0310    -7.6030 hc         1 A1A       0.059700
     81 H45        -11.5970    33.1850    -6.6350 ha         1 A1A       0.079333
     82 H44        -12.8310    34.1630    -4.7100 ha         1 A1A       0.079000
     83 H43        -11.6920    35.7580    -3.1750 ha         1 A1A       0.116333
     84 H32         -6.0090    34.5710    -0.1320 ha         1 A1A       0.124667
     85 H31         -8.1310    32.4450     2.9710 ha         1 A1A       0.079333
     86 H30        -10.2170    32.5630     1.6250 ha         1 A1A       0.079000
     87 H29        -10.2100    33.6840    -0.5970 ha         1 A1A       0.116333
     88 H34         -5.5710    32.4260     2.7790 hc         1 A1A       0.022367
     89 H33         -4.7670    33.5310     1.6880 hc         1 A1A       0.022367
     90 H5          -6.5020    34.3700     4.0630 hc         1 A1A       0.031700
     91 H8          -3.4730    34.3670     3.7930 hc         1 A1A       0.059033
     92 H39         -5.3530    32.5240     5.3100 h1         1 A1A       0.037700
     93 H40         -3.7140    32.2250     4.7110 h1         1 A1A       0.037700
     94 H7          -4.6170    33.3380     7.2160 hn         1 A1A       0.381333
     95 H37         -2.2530    34.6050     5.9900 h1         1 A1A       0.026867
     96 H38         -3.1420    35.1180     7.4460 h1         1 A1A       0.026867
     97 H36         -3.9170    36.3250     5.2180 hc         1 A1A       0.059700
     98 H35         -5.2300    35.5000     6.0740 hc         1 A1A       0.059700
     99 O5          -8.4470    41.4360    -4.3200 o          1 A1A      -0.729000
    100 C13         -8.1100    34.8890    -1.8790 c3         1 A1A       0.200767
    101 H13        -11.4660    43.9650    -4.8760 hc         1 A1A       0.059700
    102 H28         -8.4880    34.1600    -2.6080 h1         1 A1A       0.056033
    103 H27         -7.0750    35.1150    -2.1720 h1         1 A1A       0.056033
@<TRIPOS>BOND
     1     1    44 1   
     2     2     4 ar  
     3     2    18 ar  
     4     2    51 1   
     5     3    31 1   
     6     4     7 1   
     7     4    15 ar  
     8     5    10 1   
     9     5    13 1   
    10     5    52 1   
    11     5   101 1   
    12     6    19 1   
    13     6    20 1   
    14     6   100 1   
    15     7     8 1   
    16     7    53 1   
    17     7    54 1   
    18     8    11 1   
    19     8    13 1   
    20     8    55 1   
    21     9    13 1   
    22     9    14 1   
    23     9    56 1   
    24     9    57 1   
    25    10    14 1   
    26    10    58 1   
    27    10    59 1   
    28    11    12 1   
    29    11    99 1   
    30    13    60 1   
    31    14    61 1   
    32    15    16 ar  
    33    15    62 1   
    34    16    17 ar  
    35    16    19 1   
    36    17    18 ar  
    37    17    63 1   
    38    18    64 1   
    39    19    65 1   
    40    19    66 1   
    41    20    21 1   
    42    20    67 1   
    43    20    68 1   
    44    21    22 ar  
    45    21    35 ar  
    46    22    23 ar  
    47    22    69 1   
    48    23    24 1   
    49    23    33 ar  
    50    24    25 1   
    51    24    70 1   
    52    24    71 1   
    53    25    26 1   
    54    25    31 1   
    55    25    72 1   
    56    26    27 1   
    57    26    30 1   
    58    26    73 1   
    59    27    28 1   
    60    27    74 1   
    61    27    75 1   
    62    28    29 1   
    63    28    76 1   
    64    29    30 1   
    65    29    77 1   
    66    29    78 1   
    67    30    79 1   
    68    30    80 1   
    69    31    32 1   
    70    33    34 ar  
    71    33    81 1   
    72    34    35 ar  
    73    34    82 1   
    74    35    83 1   
    75    36    37 ar  
    76    36    41 ar  
    77    36   100 1   
    78    37    38 ar  
    79    37    84 1   
    80    38    39 ar  
    81    38    42 1   
    82    39    40 ar  
    83    39    85 1   
    84    40    41 ar  
    85    40    86 1   
    86    41    87 1   
    87    42    43 1   
    88    42    88 1   
    89    42    89 1   
    90    43    44 1   
    91    43    46 1   
    92    43    90 1   
    93    44    45 1   
    94    46    47 1   
    95    46    50 1   
    96    46    91 1   
    97    47    48 1   
    98    47    92 1   
    99    47    93 1   
   100    48    49 1   
   101    48    94 1   
   102    49    50 1   
   103    49    95 1   
   104    49    96 1   
   105    50    97 1   
   106    50    98 1   
   107   100   102 1   
   108   100   103 1   
@<TRIPOS>SUBSTRUCTURE
     1 A1A         1 TEMP              0 ****  ****    0 ROOT
