@<TRIPOS>MOLECULE
A1A
   52    55     1     0     0
SMALL
No Charge or Current Charge


@<TRIPOS>ATOM
      1 C4          23.3340   -48.8720    -8.2140 c6         1 A1A      -0.089400
      2 C5          21.8690   -49.0400    -8.7200 c6         1 A1A       0.163000
      3 C7          22.6950   -50.4370   -10.6200 c6         1 A1A       0.091000
      4 C10         20.5770   -47.0370   -10.6160 c          1 A1A       0.529100
      5 N12         21.2270   -45.8490   -10.9380 ns         1 A1A      -0.129000
      6 C13         20.9060   -44.4860   -10.6650 ca         1 A1A      -0.155000
      7 C20         21.7800   -43.4920   -11.1430 ca         1 A1A      -0.068000
      8 C21         21.0190   -50.1300    -8.0200 ca         1 A1A      -0.096300
      9 C22         19.7490   -50.4510    -8.5630 ca         1 A1A      -0.078000
     10 C24         19.3970   -52.0760    -6.8120 ca         1 A1A      -0.179000
     11 C26         19.9480   -53.3170    -4.8350 cc         1 A1A       0.384100
     12 C28         20.6210   -51.7750    -6.2540 ca         1 A1A       0.080400
     13 C1          24.9270   -49.2130   -10.9990 c3         1 A1A      -0.084100
     14 C2          24.1760   -50.3020   -10.1790 c6         1 A1A      -0.080700
     15 C3          24.2480   -50.0510    -8.6480 c6         1 A1A      -0.073400
     16 N6          21.9000   -49.2490   -10.1980 n          1 A1A      -0.387800
     17 O9          21.5000   -48.5120   -12.3440 o          1 A1A      -0.576100
     18 O11         19.5150   -47.1050    -9.9970 o          1 A1A      -0.566100
     19 C14         19.7590   -44.0780    -9.9360 ca         1 A1A       0.396900
     20 N15         19.4670   -42.7810    -9.6810 nb         1 A1A      -0.730000
     21 C16         20.3070   -41.8690   -10.1490 ca         1 A1A       0.588900
     22 N17         19.8910   -40.6410    -9.8130 nv         1 A1A      -1.049900
     23 C18         21.4780   -42.1440   -10.8810 ca         1 A1A      -0.172300
     24 C19         22.4000   -41.0340   -11.3810 c3         1 A1A      -0.037800
     25 C23         18.9330   -51.4280    -7.9640 ca         1 A1A      -0.072000
     26 S25         18.5370   -53.3160    -5.9160 ss         1 A1A       0.030800
     27 N27         20.9640   -52.4810    -5.1060 nd         1 A1A      -0.525100
     28 C29         21.4430   -50.8010    -6.8430 ca         1 A1A      -0.049000
     29 H1          23.3610   -48.7370    -7.1250 hc         1 A1A       0.049700
     30 H2          23.7390   -47.9370    -8.6240 hc         1 A1A       0.049700
     31 H3          21.3690   -48.0910    -8.4900 h1         1 A1A       0.073700
     32 H4          22.6450   -50.5830   -11.7080 h1         1 A1A       0.068200
     33 H5          22.2620   -51.3370   -10.1620 h1         1 A1A       0.068200
     34 H6          22.0850   -45.9750   -11.4630 hn         1 A1A       0.162000
     35 H7          22.6730   -43.7610   -11.7040 ha         1 A1A       0.113000
     36 H8          19.3890   -49.9420    -9.4530 ha         1 A1A       0.136000
     37 H9          19.9400   -53.9950    -3.9910 h5         1 A1A       0.058800
     38 H10         25.9790   -49.1450   -10.6950 hc         1 A1A       0.035700
     39 H11         24.9100   -49.4480   -12.0700 hc         1 A1A       0.035700
     40 H12         24.4800   -48.2200   -10.8730 hc         1 A1A       0.035700
     41 H13         24.6880   -51.2490   -10.4000 hc         1 A1A       0.057700
     42 H14         23.9500   -50.9680    -8.1220 hc         1 A1A       0.048700
     43 H15         25.2850   -49.8530    -8.3440 hc         1 A1A       0.048700
     44 H16         19.0460   -44.7940    -9.5370 h4         1 A1A       0.041100
     45 H17         19.1780   -40.6140    -9.0950 hn         1 A1A       0.470000
     46 H18         20.5790   -39.8980    -9.8030 hn         1 A1A       0.470000
     47 H19         21.8520   -40.3170   -12.0040 hc         1 A1A       0.042033
     48 H20         22.8450   -40.4840   -10.5440 hc         1 A1A       0.042033
     49 H21         23.2220   -41.4320   -11.9870 hc         1 A1A       0.042033
     50 H22         17.9610   -51.6730    -8.3880 ha         1 A1A       0.130000
     51 H23         22.3960   -50.5830    -6.3720 ha         1 A1A       0.131000
     52 C8          21.3590   -48.3280   -11.1360 c          1 A1A       0.526100
@<TRIPOS>BOND
     1     1     2 1   
     2     1    15 1   
     3     1    29 1   
     4     1    30 1   
     5     2     8 1   
     6     2    16 1   
     7     2    31 1   
     8     3    14 1   
     9     3    16 1   
    10     3    32 1   
    11     3    33 1   
    12     4     5 1   
    13     4    18 2   
    14     4    52 1   
    15     5     6 1   
    16     5    34 1   
    17     6     7 ar  
    18     6    19 ar  
    19     7    23 ar  
    20     7    35 1   
    21     8     9 ar  
    22     8    28 ar  
    23     9    25 ar  
    24     9    36 1   
    25    10    12 ar  
    26    10    25 ar  
    27    10    26 1   
    28    11    26 1   
    29    11    27 2   
    30    11    37 1   
    31    12    27 1   
    32    12    28 ar  
    33    13    14 1   
    34    13    38 1   
    35    13    39 1   
    36    13    40 1   
    37    14    15 1   
    38    14    41 1   
    39    15    42 1   
    40    15    43 1   
    41    16    52 1   
    42    17    52 2   
    43    19    20 ar  
    44    19    44 1   
    45    20    21 ar  
    46    21    22 1   
    47    21    23 ar  
    48    22    45 1   
    49    22    46 1   
    50    23    24 1   
    51    24    47 1   
    52    24    48 1   
    53    24    49 1   
    54    25    50 1   
    55    28    51 1   
@<TRIPOS>SUBSTRUCTURE
     1 A1A         1 TEMP              0 ****  ****    0 ROOT
