@<TRIPOS>MOLECULE
A1A
   31    32     1     0     0
SMALL
abcg2


@<TRIPOS>ATOM
      1 C13         47.1880   -44.4530    -4.9150 c6         1 A1A      -0.067400
      2 C15         49.5310   -44.3490    -5.8650 c6         1 A1A       0.201800
      3 C04         49.5070   -47.5870    -7.6760 ca         1 A1A      -0.172600
      4 C05         50.3460   -48.3530    -8.4770 ca         1 A1A      -0.073000
      5 C06         51.6820   -48.0190    -8.6450 ca         1 A1A      -0.141000
      6 C07         52.1840   -46.9090    -7.9840 ca         1 A1A      -0.073000
      7 C08         51.3660   -46.1570    -7.1530 ca         1 A1A      -0.171000
      8 C09         50.0150   -46.4720    -6.9850 ca         1 A1A       0.329000
      9 C11         48.7170   -46.4380    -4.9480 c6         1 A1A       0.201800
     10 C12         47.8710   -45.5140    -4.0660 c6         1 A1A      -0.076400
     11 C14         48.2500   -43.5590    -5.5620 c6         1 A1A      -0.076400
     12 N01         47.7370   -49.1560    -7.3030 nt         1 A1A      -0.617000
     13 N10         49.1840   -45.7310    -6.1410 nh         1 A1A      -0.788400
     14 O03         47.2070   -47.1060    -8.0850 o          1 A1A      -0.580100
     15 H132        46.5040   -43.8550    -4.3100 hc         1 A1A       0.050200
     16 H131        46.5810   -44.9380    -5.6830 hc         1 A1A       0.050200
     17 H151        50.2420   -44.2640    -5.0300 h1         1 A1A       0.032950
     18 H152        50.0260   -43.9220    -6.7370 h1         1 A1A       0.032950
     19 H051        49.9410   -49.2050    -9.0090 ha         1 A1A       0.114000
     20 H061        52.3170   -48.6140    -9.2880 ha         1 A1A       0.116000
     21 H071        53.2250   -46.6330    -8.0970 ha         1 A1A       0.112000
     22 H081        51.7920   -45.3200    -6.6160 ha         1 A1A       0.115000
     23 H112        48.1180   -47.3000    -5.2460 h1         1 A1A       0.032950
     24 H111        49.5660   -46.8290    -4.3700 h1         1 A1A       0.032950
     25 H122        48.5020   -45.0250    -3.3190 hc         1 A1A       0.041450
     26 H121        47.1460   -46.1130    -3.5120 hc         1 A1A       0.041450
     27 H142        48.5000   -42.7280    -4.8980 hc         1 A1A       0.041450
     28 H141        47.8580   -43.1190    -6.4810 hc         1 A1A       0.041450
     29 H012        46.7840   -49.4840    -7.3300 hn         1 A1A       0.311500
     30 H011        48.4350   -49.7820    -6.9400 hn         1 A1A       0.311500
     31 C02         48.0410   -47.9080    -7.6940 c          1 A1A       0.623700
@<TRIPOS>BOND
     1     1    10 1   
     2     1    11 1   
     3     1    15 1   
     4     1    16 1   
     5     2    11 1   
     6     2    13 1   
     7     2    17 1   
     8     2    18 1   
     9     3     4 ar  
    10     3     8 ar  
    11     3    31 1   
    12     4     5 ar  
    13     4    19 1   
    14     5     6 ar  
    15     5    20 1   
    16     6     7 ar  
    17     6    21 1   
    18     7     8 ar  
    19     7    22 1   
    20     8    13 1   
    21     9    10 1   
    22     9    13 1   
    23     9    23 1   
    24     9    24 1   
    25    10    25 1   
    26    10    26 1   
    27    11    27 1   
    28    11    28 1   
    29    12    29 1   
    30    12    30 1   
    31    12    31 1   
    32    14    31 2   
@<TRIPOS>SUBSTRUCTURE
     1 A1A         1 TEMP              0 ****  ****    0 ROOT
