@<TRIPOS>MOLECULE
A1A
   55    56     1     0     0
SMALL
No Charge or Current Charge


@<TRIPOS>ATOM
      1 C1          35.2370   -21.0970    24.1600 c3         1 A1A      -0.109100
      2 C2          33.7900   -21.6090    24.3390 c3         1 A1A       0.102000
      3 C4          33.2920   -20.7910    21.9310 c3         1 A1A       0.091000
      4 C5          33.1770   -19.2470    21.8840 c3         1 A1A       0.142600
      5 C7          31.4970   -21.8750    23.3790 c          1 A1A       0.667100
      6 C11         28.5040   -22.7840    22.9430 ca         1 A1A      -0.225000
      7 C12         27.1510   -23.0840    22.6600 ca         1 A1A       0.196100
      8 C16         26.6520   -23.1020    25.7300 c3         1 A1A      -0.131100
      9 C17         25.9310   -25.5470    25.2260 c3         1 A1A       0.305000
     10 C21         26.5340   -22.5410    21.5000 ca         1 A1A      -0.188600
     11 C23         28.6440   -21.4200    20.9500 ca         1 A1A       0.066000
     12 O26         24.6680   -22.4650    20.0040 o          1 A1A      -0.592100
     13 C31         21.0390   -24.9060    20.8510 ca         1 A1A      -0.148000
     14 C32         20.1810   -24.5860    21.9160 ca         1 A1A      -0.079000
     15 C33         20.6790   -23.8760    23.0200 ca         1 A1A      -0.116000
     16 C34         22.0260   -23.4780    23.0560 ca         1 A1A       0.128000
     17 C10         29.2580   -21.9400    22.1020 ca         1 A1A       0.038000
     18 C14         26.8200   -24.3380    24.8090 c3         1 A1A       0.117300
     19 C22         27.3080   -21.7150    20.6520 ca         1 A1A      -0.038000
     20 C28         22.8910   -23.7720    21.9810 ca         1 A1A      -0.073000
     21 C29         22.3850   -24.5070    20.8820 ca         1 A1A       0.198000
     22 F18         26.1200   -26.5940    24.3900 f          1 A1A      -0.106333
     23 F19         26.2330   -25.9630    26.4780 f          1 A1A      -0.106333
     24 F20         24.6150   -25.2310    25.2000 f          1 A1A      -0.106333
     25 F24         29.3450   -20.6240    20.1090 f          1 A1A      -0.179000
     26 F30         23.1950   -24.8900    19.8700 f          1 A1A      -0.159000
     27 N27         24.2500   -23.3600    22.0600 ns         1 A1A      -0.149000
     28 N3          32.8260   -21.4070    23.2150 n          1 A1A      -0.427800
     29 N9          30.6210   -21.6030    22.3390 ns         1 A1A      -0.171000
     30 O13         26.4350   -23.9480    23.4680 os         1 A1A      -0.365100
     31 O6          31.8000   -18.8420    21.8970 oh         1 A1A      -0.678000
     32 O8          31.1690   -22.4760    24.3950 o          1 A1A      -0.626100
     33 H1          35.8070   -21.2700    25.0800 hc         1 A1A       0.041033
     34 H2          35.7480   -21.6290    23.3500 hc         1 A1A       0.041033
     35 H3          35.2570   -20.0210    23.9530 hc         1 A1A       0.041033
     36 H4          33.3710   -21.1210    25.2300 h1         1 A1A       0.059200
     37 H5          33.8380   -22.6840    24.5570 h1         1 A1A       0.059200
     38 H6          32.7420   -21.2160    21.0820 h1         1 A1A       0.062200
     39 H7          34.3370   -21.0630    21.7490 h1         1 A1A       0.062200
     40 H8          33.6680   -18.8870    20.9690 h1         1 A1A       0.039200
     41 H9          33.7120   -18.8150    22.7400 h1         1 A1A       0.039200
     42 H10         28.9750   -23.2200    23.8120 ha         1 A1A       0.145000
     43 H11         26.8870   -23.3600    26.7690 hc         1 A1A       0.067367
     44 H12         27.3220   -22.2900    25.4300 hc         1 A1A       0.067367
     45 H13         25.6220   -22.7260    25.6950 hc         1 A1A       0.067367
     46 H14         20.6650   -25.4750    20.0030 ha         1 A1A       0.137000
     47 H15         19.1380   -24.8970    21.8910 ha         1 A1A       0.122000
     48 H16         20.0210   -23.6330    23.8510 ha         1 A1A       0.133000
     49 H17         27.8590   -24.6860    24.8390 h1         1 A1A       0.081700
     50 H18         26.8740   -21.2840    19.7520 ha         1 A1A       0.161000
     51 H19         24.6840   -23.5090    22.9620 hn         1 A1A       0.184000
     52 H20         31.0200   -21.0150    21.6200 hn         1 A1A       0.205000
     53 H21         31.7880   -17.8570    21.8840 ho         1 A1A       0.463000
     54 C25         25.0850   -22.7910    21.1110 c          1 A1A       0.636700
     55 Cl35        22.6130   -22.5820    24.4580 cl         1 A1A      -0.190000
@<TRIPOS>BOND
     1     1     2 1   
     2     1    33 1   
     3     1    34 1   
     4     1    35 1   
     5     2    28 1   
     6     2    36 1   
     7     2    37 1   
     8     3     4 1   
     9     3    28 1   
    10     3    38 1   
    11     3    39 1   
    12     4    31 1   
    13     4    40 1   
    14     4    41 1   
    15     5    28 1   
    16     5    29 1   
    17     5    32 2   
    18     6     7 ar  
    19     6    17 ar  
    20     6    42 1   
    21     7    10 ar  
    22     7    30 1   
    23     8    18 1   
    24     8    43 1   
    25     8    44 1   
    26     8    45 1   
    27     9    18 1   
    28     9    22 1   
    29     9    23 1   
    30     9    24 1   
    31    10    19 ar  
    32    10    54 1   
    33    11    17 ar  
    34    11    19 ar  
    35    11    25 1   
    36    12    54 2   
    37    13    14 ar  
    38    13    21 ar  
    39    13    46 1   
    40    14    15 ar  
    41    14    47 1   
    42    15    16 ar  
    43    15    48 1   
    44    16    20 ar  
    45    16    55 1   
    46    17    29 1   
    47    18    30 1   
    48    18    49 1   
    49    19    50 1   
    50    20    21 ar  
    51    20    27 1   
    52    21    26 1   
    53    27    51 1   
    54    27    54 1   
    55    29    52 1   
    56    31    53 1   
@<TRIPOS>SUBSTRUCTURE
     1 A1A         1 TEMP              0 ****  ****    0 ROOT
