@<TRIPOS>MOLECULE
A1A
   59    63     1     0     0
SMALL
abcg2


@<TRIPOS>ATOM
      1 C01         -6.2390    25.1440   -30.3010 c3         1 A1A       0.146100
      2 C03         -6.6770    27.3830   -29.6330 c3         1 A1A       0.146100
      3 C04         -7.8520    26.4460   -31.4970 c5         1 A1A       0.157500
      4 C05         -8.9840    27.4690   -31.4600 c5         1 A1A      -0.097400
      5 C06         -9.7290    27.2050   -32.7580 c5         1 A1A       0.103000
      6 C10        -11.4830    25.5210   -34.4500 ca         1 A1A      -0.177600
      7 C11        -12.7780    24.9490   -34.4030 ca         1 A1A      -0.031000
      8 C12        -13.8000    25.3780   -35.2150 ca         1 A1A      -0.139000
      9 C13        -13.4960    26.3970   -36.1240 ca         1 A1A      -0.030200
     10 C16        -12.3230    27.9400   -37.2310 cc         1 A1A       0.421800
     11 C17        -11.2980    28.8000   -37.6810 cg         1 A1A      -0.111200
     12 C18        -10.3610    29.4930   -37.9940 ch         1 A1A      -0.083000
     13 C19         -9.2620    30.3200   -38.3510 ca         1 A1A       0.037000
     14 C20         -9.4860    31.4310   -39.1710 ca         1 A1A      -0.087000
     15 C21         -8.4530    32.2920   -39.4920 ca         1 A1A      -0.110000
     16 C22         -7.1790    32.0570   -38.9890 ca         1 A1A      -0.101000
     17 C23         -6.9480    30.9550   -38.1790 ca         1 A1A      -0.104000
     18 C24         -7.9700    30.0670   -37.8530 cp         1 A1A      -0.013000
     19 C25         -7.6750    28.9010   -36.9930 cp         1 A1A      -0.042000
     20 C26         -7.9950    27.6050   -37.3960 ca         1 A1A      -0.094500
     21 C27         -7.6800    26.5180   -36.5930 ca         1 A1A      -0.118500
     22 C28         -7.0430    26.7100   -35.3740 ca         1 A1A      -0.104000
     23 C29         -6.7170    27.9970   -34.9660 ca         1 A1A      -0.118500
     24 C30         -7.0290    29.0830   -35.7710 ca         1 A1A      -0.094500
     25 C31        -12.2140    26.9580   -36.2020 ca         1 A1A      -0.223900
     26 C32        -11.1940    26.5200   -35.3560 ca         1 A1A      -0.003000
     27 C33         -8.5380    25.2130   -32.0880 c5         1 A1A       0.096000
     28 N02         -7.2480    26.1800   -30.2070 n3         1 A1A      -0.702600
     29 N07         -9.5880    25.7610   -32.9360 n          1 A1A      -0.410800
     30 N14        -14.2380    27.0430   -37.0540 na         1 A1A      -0.050400
     31 N15        -13.5490    27.9630   -37.7160 nd         1 A1A      -0.492100
     32 O09        -10.3490    23.7110   -33.4500 o          1 A1A      -0.605100
     33 H1          -5.7960    24.9730   -29.3190 h1         1 A1A       0.032867
     34 H2          -6.6750    24.1990   -30.6270 h1         1 A1A       0.032867
     35 H3          -5.4240    25.3970   -30.9980 h1         1 A1A       0.032867
     36 H4          -6.2200    27.1470   -28.6710 h1         1 A1A       0.032867
     37 H5          -5.9040    27.8400   -30.2690 h1         1 A1A       0.032867
     38 H6          -7.4480    28.1310   -29.4530 h1         1 A1A       0.032867
     39 H7          -7.0880    26.8000   -32.2140 h1         1 A1A       0.027700
     40 H8          -8.6400    28.5000   -31.4020 hc         1 A1A       0.061700
     41 H9          -9.6270    27.2710   -30.5970 hc         1 A1A       0.061700
     42 H10         -9.2600    27.7510   -33.5790 h1         1 A1A       0.054200
     43 H11        -10.7760    27.5020   -32.7100 h1         1 A1A       0.054200
     44 H12        -12.9710    24.1550   -33.6940 ha         1 A1A       0.132000
     45 H13        -14.7870    24.9410   -35.1540 ha         1 A1A       0.125000
     46 H14        -10.4850    31.6180   -39.5440 ha         1 A1A       0.124000
     47 H15         -8.6410    33.1470   -40.1280 ha         1 A1A       0.117000
     48 H16         -6.3650    32.7260   -39.2320 ha         1 A1A       0.116000
     49 H17         -5.9500    30.7680   -37.8040 ha         1 A1A       0.118000
     50 H18         -8.4790    27.4400   -38.3510 ha         1 A1A       0.118500
     51 H19         -7.9320    25.5180   -36.9220 ha         1 A1A       0.115000
     52 H20         -6.8010    25.8630   -34.7470 ha         1 A1A       0.116000
     53 H21         -6.2220    28.1570   -34.0170 ha         1 A1A       0.115000
     54 H22         -6.7790    30.0840   -35.4410 ha         1 A1A       0.118500
     55 H23        -10.2020    26.9460   -35.4370 ha         1 A1A       0.136000
     56 H24         -8.9640    24.6010   -31.2870 h1         1 A1A       0.062200
     57 H25         -7.8590    24.5850   -32.6670 h1         1 A1A       0.062200
     58 H27        -15.2110    26.8970   -37.2760 hn         1 A1A       0.381000
     59 C08        -10.4300    24.9280   -33.5710 c          1 A1A       0.619700
@<TRIPOS>BOND
     1     1    28 1   
     2     1    33 1   
     3     1    34 1   
     4     1    35 1   
     5     2    28 1   
     6     2    36 1   
     7     2    37 1   
     8     2    38 1   
     9     3     4 1   
    10     3    27 1   
    11     3    28 1   
    12     3    39 1   
    13     4     5 1   
    14     4    40 1   
    15     4    41 1   
    16     5    29 1   
    17     5    42 1   
    18     5    43 1   
    19     6     7 ar  
    20     6    26 ar  
    21     6    59 1   
    22     7     8 ar  
    23     7    44 1   
    24     8     9 ar  
    25     8    45 1   
    26     9    25 ar  
    27     9    30 1   
    28    10    11 1   
    29    10    25 1   
    30    10    31 2   
    31    11    12 3   
    32    12    13 1   
    33    13    14 ar  
    34    13    18 ar  
    35    14    15 ar  
    36    14    46 1   
    37    15    16 ar  
    38    15    47 1   
    39    16    17 ar  
    40    16    48 1   
    41    17    18 ar  
    42    17    49 1   
    43    18    19 1   
    44    19    20 ar  
    45    19    24 ar  
    46    20    21 ar  
    47    20    50 1   
    48    21    22 ar  
    49    21    51 1   
    50    22    23 ar  
    51    22    52 1   
    52    23    24 ar  
    53    23    53 1   
    54    24    54 1   
    55    25    26 ar  
    56    26    55 1   
    57    27    29 1   
    58    27    56 1   
    59    27    57 1   
    60    29    59 1   
    61    30    31 1   
    62    30    58 1   
    63    32    59 2   
@<TRIPOS>SUBSTRUCTURE
     1 A1A         1 TEMP              0 ****  ****    0 ROOT
