@<TRIPOS>MOLECULE
A1A
   23    23     1     0     0
SMALL
No Charge or Current Charge


@<TRIPOS>ATOM
      1 C10        -54.8510    27.1670    -6.6310 ca         1 A1A      -0.130000
      2 C01        -59.8760    21.6840   -11.4300 c3         1 A1A      -0.100100
      3 C02        -59.9710    22.7930   -10.3710 c3         1 A1A       0.185600
      4 C04        -58.4640    24.2110    -9.1470 c          1 A1A       0.649100
      5 C07        -56.3980    25.3900    -8.1930 ca         1 A1A       0.007000
      6 C08        -57.0230    26.2860    -7.2950 ca         1 A1A      -0.134000
      7 C09        -56.2510    27.1690    -6.5180 ca         1 A1A      -0.076000
      8 C11        -54.2260    26.2820    -7.5200 ca         1 A1A       0.149000
      9 C12        -54.9940    25.3990    -8.2960 ca         1 A1A      -0.166000
     10 N06        -57.1140    24.4710    -9.0070 ns         1 A1A      -0.142000
     11 O03        -58.6300    23.2190   -10.0740 os         1 A1A      -0.465100
     12 O05        -59.3780    24.7640    -8.5500 o          1 A1A      -0.522000
     13 Cl13       -52.4730    26.2760    -7.6650 cl         1 A1A      -0.204000
     14 H101       -54.2530    27.8490    -6.0320 ha         1 A1A       0.132000
     15 H012       -60.8780    21.3240   -11.6920 hc         1 A1A       0.049367
     16 H013       -59.3970    22.0600   -12.3410 hc         1 A1A       0.049367
     17 H011       -59.2940    20.8360   -11.0500 hc         1 A1A       0.049367
     18 H021       -60.5690    23.6260   -10.7650 h1         1 A1A       0.052200
     19 H022       -60.4670    22.4010    -9.4730 h1         1 A1A       0.052200
     20 H081       -58.1020    26.3140    -7.1830 ha         1 A1A       0.150000
     21 H091       -56.7390    27.8560    -5.8290 ha         1 A1A       0.120000
     22 H121       -54.4930    24.7190    -8.9800 ha         1 A1A       0.127000
     23 H061       -56.5290    23.8970    -9.5980 hn         1 A1A       0.168000
@<TRIPOS>BOND
     1     1     7 ar  
     2     1     8 ar  
     3     1    14 1   
     4     2     3 1   
     5     2    15 1   
     6     2    16 1   
     7     2    17 1   
     8     3    11 1   
     9     3    18 1   
    10     3    19 1   
    11     4    10 1   
    12     4    11 1   
    13     4    12 2   
    14     5     6 ar  
    15     5     9 ar  
    16     5    10 1   
    17     6     7 ar  
    18     6    20 1   
    19     7    21 1   
    20     8     9 ar  
    21     8    13 1   
    22     9    22 1   
    23    10    23 1   
@<TRIPOS>SUBSTRUCTURE
     1 A1A         1 TEMP              0 ****  ****    0 ROOT
