@<TRIPOS>MOLECULE
A1A
   50    52     1     0     0
SMALL
No Charge or Current Charge


@<TRIPOS>ATOM
      1 C4          23.4550   -49.7670    -8.4970 c6         1 A1A      -0.089400
      2 C5          21.9930   -49.9700    -9.0000 c6         1 A1A       0.164000
      3 C7          22.8560   -51.2330   -10.9750 c6         1 A1A       0.091000
      4 C10         20.6090   -47.9240   -10.7760 c          1 A1A       0.528100
      5 N12         21.2300   -46.7010   -11.0170 ns         1 A1A      -0.130000
      6 C13         20.8720   -45.3670   -10.6590 ca         1 A1A      -0.156000
      7 C20         21.7230   -44.3220   -11.0640 ca         1 A1A      -0.063000
      8 C21         21.1940   -51.1280    -8.3490 ca         1 A1A      -0.096300
      9 C22         21.6500   -51.8400    -7.2130 ca         1 A1A      -0.094500
     10 C24         19.6390   -53.2130    -7.2210 ca         1 A1A      -0.105000
     11 C26         19.9360   -51.4710    -8.8930 ca         1 A1A      -0.094500
     12 C1          25.0340   -49.9020   -11.3080 c3         1 A1A      -0.084100
     13 C2          24.3350   -51.0600   -10.5390 c6         1 A1A      -0.079700
     14 C3          24.4120   -50.8850    -8.9980 c6         1 A1A      -0.072400
     15 N6          22.0180   -50.1020   -10.4870 n          1 A1A      -0.382800
     16 O9          21.5590   -49.2770   -12.5890 o          1 A1A      -0.586100
     17 O11         19.5450   -48.0580   -10.1710 o          1 A1A      -0.567100
     18 C14         19.7100   -45.0360    -9.9160 ca         1 A1A       0.398900
     19 N15         19.3820   -43.7660    -9.5800 nb         1 A1A      -0.731000
     20 C16         20.2010   -42.8050    -9.9810 ca         1 A1A       0.590900
     21 N17         19.7520   -41.6130    -9.5700 nv         1 A1A      -1.050900
     22 C18         21.3840   -43.0020   -10.7180 ca         1 A1A      -0.175300
     23 C19         22.2810   -41.8400   -11.1380 c3         1 A1A      -0.036800
     24 C23         20.8790   -52.8760    -6.6590 ca         1 A1A      -0.113000
     25 C25         19.1660   -52.5070    -8.3370 ca         1 A1A      -0.113000
     26 H1          23.4870   -49.6880    -7.4020 hc         1 A1A       0.048200
     27 H2          23.8180   -48.7970    -8.8610 hc         1 A1A       0.048200
     28 H3          21.4570   -49.0550    -8.7170 h1         1 A1A       0.073700
     29 H4          22.8000   -51.3250   -12.0690 h1         1 A1A       0.068200
     30 H5          22.4630   -52.1720   -10.5590 h1         1 A1A       0.068200
     31 H6          22.0940   -46.7710   -11.5420 hn         1 A1A       0.165000
     32 H7          22.6260   -44.5320   -11.6340 ha         1 A1A       0.114000
     33 H8          22.6000   -51.6050    -6.7410 ha         1 A1A       0.118500
     34 H9          19.0430   -54.0150    -6.7900 ha         1 A1A       0.113000
     35 H10         19.5460   -50.9330    -9.7540 ha         1 A1A       0.118500
     36 H11         26.0840   -49.8070   -11.0090 hc         1 A1A       0.035367
     37 H12         25.0150   -50.0820   -12.3900 hc         1 A1A       0.035367
     38 H13         24.5480   -48.9360   -11.1280 hc         1 A1A       0.035367
     39 H14         24.8820   -51.9740   -10.8120 hc         1 A1A       0.055700
     40 H15         24.1560   -51.8390    -8.5170 hc         1 A1A       0.046700
     41 H16         25.4430   -50.6610    -8.6920 hc         1 A1A       0.046700
     42 H17         19.0120   -45.7950    -9.5690 h4         1 A1A       0.039100
     43 H18         19.0340   -41.6500    -8.8580 hn         1 A1A       0.470000
     44 H19         20.4210   -40.8550    -9.5050 hn         1 A1A       0.470000
     45 H20         21.7190   -41.0980   -11.7190 hc         1 A1A       0.041700
     46 H21         22.7050   -41.3330   -10.2630 hc         1 A1A       0.041700
     47 H22         23.1180   -42.1770   -11.7610 hc         1 A1A       0.041700
     48 H23         21.2440   -53.4170    -5.7890 ha         1 A1A       0.113500
     49 H24         18.2020   -52.7610    -8.7720 ha         1 A1A       0.113500
     50 C8          21.4290   -49.1580   -11.3710 c          1 A1A       0.525100
@<TRIPOS>BOND
     1     1     2 1   
     2     1    14 1   
     3     1    26 1   
     4     1    27 1   
     5     2     8 1   
     6     2    15 1   
     7     2    28 1   
     8     3    13 1   
     9     3    15 1   
    10     3    29 1   
    11     3    30 1   
    12     4     5 1   
    13     4    17 2   
    14     4    50 1   
    15     5     6 1   
    16     5    31 1   
    17     6     7 ar  
    18     6    18 ar  
    19     7    22 ar  
    20     7    32 1   
    21     8     9 ar  
    22     8    11 ar  
    23     9    24 ar  
    24     9    33 1   
    25    10    24 ar  
    26    10    25 ar  
    27    10    34 1   
    28    11    25 ar  
    29    11    35 1   
    30    12    13 1   
    31    12    36 1   
    32    12    37 1   
    33    12    38 1   
    34    13    14 1   
    35    13    39 1   
    36    14    40 1   
    37    14    41 1   
    38    15    50 1   
    39    16    50 2   
    40    18    19 ar  
    41    18    42 1   
    42    19    20 ar  
    43    20    21 1   
    44    20    22 ar  
    45    21    43 1   
    46    21    44 1   
    47    22    23 1   
    48    23    45 1   
    49    23    46 1   
    50    23    47 1   
    51    24    48 1   
    52    25    49 1   
@<TRIPOS>SUBSTRUCTURE
     1 A1A         1 TEMP              0 ****  ****    0 ROOT
