@<TRIPOS>MOLECULE
A1A
   68    71     1     0     0
SMALL
abcg2


@<TRIPOS>ATOM
      1 O1          21.1220    -5.4250    19.2950 o          1 A1A      -0.730000
      2 C7          25.1440    -3.6990    19.2850 ca         1 A1A      -0.022300
      3 O2          25.4210     0.2670    17.7800 o          1 A1A      -0.572100
      4 C6          23.6990    -4.0820    19.4650 c3         1 A1A      -0.025600
      5 C1          22.8860    -4.2880    18.1770 c3         1 A1A      -0.181200
      6 C5          22.4580    -5.7310    16.1060 c5         1 A1A      -0.106400
      7 C4          23.4290    -6.2320    15.0130 c5         1 A1A       0.129800
      8 C3          24.7450    -5.4260    16.7270 c5         1 A1A       0.122800
      9 C2          23.3410    -5.4900    17.3470 c5         1 A1A      -0.061200
     10 C22         21.4360     4.5600    16.3010 c          1 A1A       0.715000
     11 O3          20.5990     3.7200    16.6900 o          1 A1A      -0.730000
     12 C21         22.9150     4.3230    16.6890 c3         1 A1A      -0.181200
     13 C23         23.3940     5.4180    17.6500 c5         1 A1A      -0.061200
     14 C26         22.4010     5.7260    18.7810 c5         1 A1A      -0.106400
     15 C25         23.3040     6.2420    19.8940 c5         1 A1A       0.129800
     16 N3          24.4880     5.3910    19.8470 n7         1 A1A      -0.849400
     17 C24         24.7080     5.1040    18.4240 c5         1 A1A       0.122800
     18 C20         23.7520     4.2410    15.4010 c3         1 A1A      -0.025600
     19 C18         25.1950     3.8750    15.6030 ca         1 A1A      -0.022300
     20 C19         26.2060     4.8140    15.4310 ca         1 A1A      -0.146500
     21 C16         27.5310     4.4590    15.6470 ca         1 A1A      -0.099000
     22 C15         27.8580     3.1760    16.0510 ca         1 A1A      -0.194000
     23 C17         25.5300     2.5750    15.9780 ca         1 A1A      -0.118000
     24 C14         26.8540     2.2200    16.2200 ca         1 A1A      -0.015000
     25 N2          27.2480     0.9250    16.5790 ns         1 A1A      -0.170500
     26 C13         26.5420     0.0460    17.3600 c          1 A1A       0.657100
     27 C12         26.8190    -2.2040    18.3730 ca         1 A1A      -0.015000
     28 C10         27.8220    -2.9980    18.9370 ca         1 A1A      -0.194000
     29 C9          27.4850    -4.1220    19.6700 ca         1 A1A      -0.099000
     30 C8          26.1540    -4.4700    19.8520 ca         1 A1A      -0.146500
     31 C11         25.4850    -2.5630    18.5520 ca         1 A1A      -0.118000
     32 C           21.3950    -4.4520    18.5600 c          1 A1A       0.715000
     33 O           20.5890    -3.6100    18.1140 o          1 A1A      -0.730000
     34 N           24.7460    -6.3870    15.6310 n7         1 A1A      -0.849400
     35 H10         23.2110    -3.2950    20.0520 hc         1 A1A       0.055700
     36 H11         23.6400    -4.9900    20.0680 hc         1 A1A       0.055700
     37 H           22.9800    -3.3930    17.5500 hc         1 A1A       0.050700
     38 H8          21.9700    -4.8050    15.7940 hc         1 A1A       0.062450
     39 H9          21.6660    -6.4510    16.3140 hc         1 A1A       0.062450
     40 H7          23.4970    -5.4970    14.2070 h1         1 A1A       0.028950
     41 H6          23.1140    -7.1710    14.5570 h1         1 A1A       0.028950
     42 H3          25.5470    -5.6480    17.4300 h1         1 A1A       0.044950
     43 H2          24.9350    -4.4230    16.3270 h1         1 A1A       0.044950
     44 H1          23.3030    -6.3820    17.9830 hc         1 A1A       0.045200
     45 H24         22.9840     3.3610    17.2120 hc         1 A1A       0.050700
     46 H25         23.5400     6.3350    17.0690 hc         1 A1A       0.045200
     47 H33         21.6270     6.4330    18.4790 hc         1 A1A       0.062450
     48 H32         21.9020     4.8100    19.1120 hc         1 A1A       0.062450
     49 H31         23.5910     7.2810    19.6980 h1         1 A1A       0.028950
     50 H30         22.8450     6.2140    20.8830 h1         1 A1A       0.028950
     51 H29         24.2550     4.5220    20.3110 hn         1 A1A       0.385000
     52 H27         25.0170     4.0640    18.3080 h1         1 A1A       0.044950
     53 H26         25.5270     5.7170    18.0410 h1         1 A1A       0.044950
     54 H23         23.6900     5.1990    14.8790 hc         1 A1A       0.055700
     55 H22         23.2930     3.4980    14.7400 hc         1 A1A       0.055700
     56 H21         25.9570     5.8250    15.1330 ha         1 A1A       0.109000
     57 H19         28.3180     5.1900    15.5110 ha         1 A1A       0.090500
     58 H18         28.8930     2.9100    16.2320 ha         1 A1A       0.088000
     59 H20         24.7410     1.8420    16.0750 ha         1 A1A       0.157500
     60 H17         28.2160     0.7110    16.3880 hn         1 A1A       0.130000
     61 H14         28.8630    -2.7300    18.8020 ha         1 A1A       0.088000
     62 H13         28.2700    -4.7290    20.1030 ha         1 A1A       0.090500
     63 H12         25.8980    -5.3560    20.4210 ha         1 A1A       0.109000
     64 H15         24.7000    -1.9730    18.1050 ha         1 A1A       0.157500
     65 H5          24.7980    -7.3140    16.0360 hn         1 A1A       0.385000
     66 N1          27.2340    -1.1110    17.6030 ns         1 A1A      -0.170500
     67 H16         28.2030    -1.1410    17.3240 hn         1 A1A       0.130000
     68 O4          21.2010     5.5850    15.6260 o          1 A1A      -0.730000
@<TRIPOS>BOND
     1     1    32 1   
     2     2     4 1   
     3     2    30 ar  
     4     2    31 ar  
     5     3    26 2   
     6     4     5 1   
     7     4    35 1   
     8     4    36 1   
     9     5     9 1   
    10     5    32 1   
    11     5    37 1   
    12     6     7 1   
    13     6     9 1   
    14     6    38 1   
    15     6    39 1   
    16     7    34 1   
    17     7    40 1   
    18     7    41 1   
    19     8     9 1   
    20     8    34 1   
    21     8    42 1   
    22     8    43 1   
    23     9    44 1   
    24    10    11 1   
    25    10    12 1   
    26    10    68 1   
    27    12    13 1   
    28    12    18 1   
    29    12    45 1   
    30    13    14 1   
    31    13    17 1   
    32    13    46 1   
    33    14    15 1   
    34    14    47 1   
    35    14    48 1   
    36    15    16 1   
    37    15    49 1   
    38    15    50 1   
    39    16    17 1   
    40    16    51 1   
    41    17    52 1   
    42    17    53 1   
    43    18    19 1   
    44    18    54 1   
    45    18    55 1   
    46    19    20 ar  
    47    19    23 ar  
    48    20    21 ar  
    49    20    56 1   
    50    21    22 ar  
    51    21    57 1   
    52    22    24 ar  
    53    22    58 1   
    54    23    24 ar  
    55    23    59 1   
    56    24    25 1   
    57    25    26 1   
    58    25    60 1   
    59    26    66 1   
    60    27    28 ar  
    61    27    31 ar  
    62    27    66 1   
    63    28    29 ar  
    64    28    61 1   
    65    29    30 ar  
    66    29    62 1   
    67    30    63 1   
    68    31    64 1   
    69    32    33 1   
    70    34    65 1   
    71    66    67 1   
@<TRIPOS>SUBSTRUCTURE
     1 A1A         1 TEMP              0 ****  ****    0 ROOT
