@<TRIPOS>MOLECULE
A1A
   68    71     1     0     0
SMALL
No Charge or Current Charge


@<TRIPOS>ATOM
      1 O1          21.0920    -6.0610    19.0340 o          1 A1A      -0.730000
      2 C7          25.1080    -4.0910    19.3190 ca         1 A1A      -0.022300
      3 O2          24.9570    -0.0780    17.4710 o          1 A1A      -0.572100
      4 C6          23.6850    -4.6270    19.4630 c3         1 A1A      -0.025600
      5 C1          22.8990    -4.7860    18.1270 c3         1 A1A      -0.181200
      6 C5          22.6310    -6.0690    15.8590 c5         1 A1A      -0.106400
      7 C4          23.6250    -6.7630    14.8830 c5         1 A1A       0.129800
      8 C3          24.8390    -5.5690    16.5000 c5         1 A1A       0.122800
      9 C2          23.4670    -5.8730    17.1560 c5         1 A1A      -0.061200
     10 C22         21.3440     4.9370    16.5210 c          1 A1A       0.715000
     11 O3          20.5510     4.1250    16.9730 o          1 A1A      -0.730000
     12 C21         22.8480     4.7340    16.8230 c3         1 A1A      -0.181200
     13 C23         23.4280     5.9210    17.6600 c5         1 A1A      -0.061200
     14 C26         22.5990     6.2970    18.9180 c5         1 A1A      -0.106400
     15 C25         23.6210     7.1920    19.6430 c5         1 A1A       0.129800
     16 N3          24.8320     6.3500    19.6330 n7         1 A1A      -0.849400
     17 C24         24.8430     5.6950    18.2930 c5         1 A1A       0.122800
     18 C20         23.6120     4.4490    15.4960 c3         1 A1A      -0.025600
     19 C18         25.0460     3.9590    15.6770 ca         1 A1A      -0.022300
     20 C19         26.1260     4.7540    15.2480 ca         1 A1A      -0.146500
     21 C16         27.4440     4.3070    15.4220 ca         1 A1A      -0.099000
     22 C15         27.6900     3.0620    16.0200 ca         1 A1A      -0.194000
     23 C17         25.3000     2.7050    16.2680 ca         1 A1A      -0.118000
     24 C14         26.6250     2.2470    16.4450 ca         1 A1A      -0.015000
     25 N2          26.9580     0.9990    17.0400 ns         1 A1A      -0.170500
     26 C13         26.1810    -0.0520    17.5090 c          1 A1A       0.657100
     27 C12         26.6590    -2.3290    18.6040 ca         1 A1A      -0.015000
     28 C10         27.7340    -3.1140    19.0580 ca         1 A1A      -0.194000
     29 C9          27.5080    -4.3680    19.6440 ca         1 A1A      -0.099000
     30 C8          26.1980    -4.8540    19.7770 ca         1 A1A      -0.146500
     31 C11         25.3430    -2.8250    18.7430 ca         1 A1A      -0.118000
     32 C           21.4030    -5.0400    18.4360 c          1 A1A       0.715000
     33 O           20.5910    -4.1960    18.0870 o          1 A1A      -0.730000
     34 N           24.9650    -6.6600    15.5100 n7         1 A1A      -0.849400
     35 H10         23.1250    -3.9440    20.1140 hc         1 A1A       0.055700
     36 H11         23.6920    -5.5910    19.9860 hc         1 A1A       0.055700
     37 H           22.9430    -3.8230    17.6050 hc         1 A1A       0.050700
     38 H8          22.3020    -5.1070    15.4480 hc         1 A1A       0.062450
     39 H9          21.7300    -6.6710    16.0260 hc         1 A1A       0.062450
     40 H7          23.6140    -6.2590    13.9070 h1         1 A1A       0.028950
     41 H6          23.3620    -7.8170    14.7150 h1         1 A1A       0.028950
     42 H3          25.6700    -5.5930    17.2170 h1         1 A1A       0.044950
     43 H2          24.8400    -4.5850    16.0090 h1         1 A1A       0.044950
     44 H1          23.5170    -6.8130    17.7200 hc         1 A1A       0.045200
     45 H24         22.9190     3.8300    17.4400 hc         1 A1A       0.050700
     46 H25         23.4690     6.7860    16.9870 hc         1 A1A       0.045200
     47 H33         21.6770     6.8360    18.6750 hc         1 A1A       0.062450
     48 H32         22.3270     5.4200    19.5160 hc         1 A1A       0.062450
     49 H31         23.7920     8.1290    19.0930 h1         1 A1A       0.028950
     50 H30         23.3090     7.4460    20.6660 h1         1 A1A       0.028950
     51 H29         24.6970     5.6130    20.3360 hn         1 A1A       0.385000
     52 H27         25.0730     4.6260    18.4060 h1         1 A1A       0.044950
     53 H26         25.6230     6.1300    17.6520 h1         1 A1A       0.044950
     54 H23         23.5940     5.3510    14.8720 hc         1 A1A       0.055700
     55 H22         23.0550     3.6900    14.9310 hc         1 A1A       0.055700
     56 H21         25.9450     5.7220    14.7880 ha         1 A1A       0.109000
     57 H19         28.2760     4.9280    15.0950 ha         1 A1A       0.090500
     58 H18         28.7170     2.7270    16.1500 ha         1 A1A       0.088000
     59 H20         24.4540     2.1060    16.5860 ha         1 A1A       0.157500
     60 H17         27.9540     0.8530    17.1400 hn         1 A1A       0.130000
     61 H14         28.7540    -2.7490    18.9590 ha         1 A1A       0.088000
     62 H13         28.3470    -4.9650    19.9950 ha         1 A1A       0.090500
     63 H12         26.0330    -5.8290    20.2300 ha         1 A1A       0.109000
     64 H15         24.4900    -2.2450    18.4080 ha         1 A1A       0.157500
     65 H5          25.1300    -7.5270    16.0340 hn         1 A1A       0.385000
     66 N1          26.9720    -1.0680    18.0250 ns         1 A1A      -0.170500
     67 H16         27.9650    -0.8810    17.9830 hn         1 A1A       0.130000
     68 O4          21.0070     5.8870    15.8270 o          1 A1A      -0.730000
@<TRIPOS>BOND
     1     1    32 1   
     2     2     4 1   
     3     2    30 ar  
     4     2    31 ar  
     5     3    26 2   
     6     4     5 1   
     7     4    35 1   
     8     4    36 1   
     9     5     9 1   
    10     5    32 1   
    11     5    37 1   
    12     6     7 1   
    13     6     9 1   
    14     6    38 1   
    15     6    39 1   
    16     7    34 1   
    17     7    40 1   
    18     7    41 1   
    19     8     9 1   
    20     8    34 1   
    21     8    42 1   
    22     8    43 1   
    23     9    44 1   
    24    10    11 1   
    25    10    12 1   
    26    10    68 1   
    27    12    13 1   
    28    12    18 1   
    29    12    45 1   
    30    13    14 1   
    31    13    17 1   
    32    13    46 1   
    33    14    15 1   
    34    14    47 1   
    35    14    48 1   
    36    15    16 1   
    37    15    49 1   
    38    15    50 1   
    39    16    17 1   
    40    16    51 1   
    41    17    52 1   
    42    17    53 1   
    43    18    19 1   
    44    18    54 1   
    45    18    55 1   
    46    19    20 ar  
    47    19    23 ar  
    48    20    21 ar  
    49    20    56 1   
    50    21    22 ar  
    51    21    57 1   
    52    22    24 ar  
    53    22    58 1   
    54    23    24 ar  
    55    23    59 1   
    56    24    25 1   
    57    25    26 1   
    58    25    60 1   
    59    26    66 1   
    60    27    28 ar  
    61    27    31 ar  
    62    27    66 1   
    63    28    29 ar  
    64    28    61 1   
    65    29    30 ar  
    66    29    62 1   
    67    30    63 1   
    68    31    64 1   
    69    32    33 1   
    70    34    65 1   
    71    66    67 1   
@<TRIPOS>SUBSTRUCTURE
     1 A1A         1 TEMP              0 ****  ****    0 ROOT
