@<TRIPOS>MOLECULE
A1A
   90    96     1     0     0
SMALL
No Charge or Current Charge


@<TRIPOS>ATOM
      1 C10        -14.1220    16.6120   -21.9900 ca         1 A1A      -0.093500
      2 C11        -13.5890    15.3170   -22.1530 ca         1 A1A      -0.098500
      3 C12        -14.1590    14.2090   -21.5030 ca         1 A1A      -0.093000
      4 C16        -19.6940    13.2900   -20.3270 c3         1 A1A       0.176000
      5 C17        -20.3730    11.9060   -20.1540 c3         1 A1A       0.167600
      6 C18        -19.8850    13.9600   -21.7010 ca         1 A1A      -0.096300
      7 C19        -20.5810    13.3490   -22.7690 ca         1 A1A      -0.065000
      8 C01        -15.2890    14.3490   -20.6620 ca         1 A1A      -0.123300
      9 C02        -15.9810    13.1360   -19.9740 c5         1 A1A       0.216500
     10 C03        -17.2720    12.8360   -20.7800 c          1 A1A       0.566000
     11 C05        -15.0570    11.8600   -19.8660 c3         1 A1A      -0.060400
     12 C06        -17.7930    13.6410   -18.6730 c2         1 A1A       0.688800
     13 C08        -15.8190    15.6550   -20.5100 ca         1 A1A      -0.093000
     14 C09        -15.2470    16.7630   -21.1550 ca         1 A1A      -0.098500
     15 C20        -20.6650    13.9910   -24.0170 ca         1 A1A      -0.102000
     16 C21        -20.0450    15.2320   -24.2230 ca         1 A1A       0.154000
     17 C22        -19.3490    15.8530   -23.1700 ca         1 A1A      -0.127500
     18 C23        -19.2920    15.2220   -21.9140 ca         1 A1A      -0.044000
     19 C26        -16.7870     9.9170   -19.7450 c3         1 A1A      -0.099100
     20 C27        -15.7470    10.7560   -17.6000 c3         1 A1A      -0.099100
     21 C28        -13.5300    17.7670   -22.6870 cc         1 A1A       0.253500
     22 C29        -18.6310    17.1040   -23.3720 cc         1 A1A       0.515000
     23 C31        -17.9970    19.1380   -23.3030 cd         1 A1A       0.532900
     24 C35        -14.3210     9.4760   -19.2750 c3         1 A1A       0.289000
     25 C36        -13.9520    19.1040   -22.5850 cc         1 A1A       0.210900
     26 C40        -11.3220    19.4090   -24.8500 cx         1 A1A       0.028300
     27 C41        -10.2840    20.4840   -24.6080 cx         1 A1A      -0.118900
     28 C42         -9.8560    19.0450   -24.7650 cx         1 A1A      -0.118900
     29 C43        -20.4560    10.1700   -18.4980 c          1 A1A       0.650100
     30 C46        -20.1140     8.6430   -16.5440 cx         1 A1A      -0.014600
     31 C47        -21.4500     8.3850   -15.8180 c3         1 A1A       0.197300
     32 C55        -18.8140     8.1770   -15.9190 cx         1 A1A      -0.101400
     33 C56        -19.3380     7.4940   -17.1580 cx         1 A1A      -0.101400
     34 F48        -21.4210     7.2180   -15.1310 f          1 A1A      -0.114500
     35 F49        -22.4510     8.2760   -16.7220 f          1 A1A      -0.114500
     36 F50        -14.0600     9.2020   -20.5750 f          1 A1A      -0.117000
     37 F51        -13.1750     9.9350   -18.7200 f          1 A1A      -0.117000
     38 F52        -14.6120     8.2980   -18.6730 f          1 A1A      -0.117000
     39 F53        -16.5670    15.0510   -23.7530 f          1 A1A      -0.096500
     40 F54        -16.9360    15.8390   -25.7470 f          1 A1A      -0.096500
     41 N04        -16.4380    13.5500   -18.6220 nu         1 A1A      -0.907400
     42 N07        -18.4090    14.2570   -17.7610 n2         1 A1A      -0.868100
     43 N15        -18.2710    13.2480   -19.9130 n          1 A1A      -0.391300
     44 N30        -19.0230    18.2840   -22.9380 nd         1 A1A      -0.683000
     45 N32        -16.9800    18.5340   -23.9070 nc         1 A1A      -0.518800
     46 N33        -17.3840    17.2340   -23.9390 na         1 A1A      -0.138700
     47 N37        -13.2350    19.9080   -23.3330 nd         1 A1A      -0.488800
     48 N38        -12.3600    18.9960   -23.8980 na         1 A1A       0.280600
     49 N39        -12.5190    17.6720   -23.5230 nd         1 A1A      -0.495800
     50 N45        -20.0250     9.9150   -17.2250 ns         1 A1A      -0.479900
     51 O14        -17.4230    12.3690   -21.9050 o          1 A1A      -0.488000
     52 O44        -20.9630     9.3600   -19.2580 o          1 A1A      -0.508000
     53 Cl24       -20.1690    16.0000   -25.8040 cl         1 A1A      -0.171000
     54 H1         -12.7240    15.1580   -22.7930 ha         1 A1A       0.126000
     55 H2         -13.7020    13.2410   -21.6840 ha         1 A1A       0.123500
     56 H3         -20.2010    13.9510   -19.6160 h1         1 A1A       0.073700
     57 H4         -21.4500    11.9880   -20.3480 h1         1 A1A       0.069200
     58 H5         -19.9380    11.2070   -20.8800 h1         1 A1A       0.069200
     59 H6         -21.0530    12.3770   -22.6570 ha         1 A1A       0.125000
     60 H7         -14.8120    11.5660   -20.8920 hc         1 A1A       0.074200
     61 H8         -14.1120    12.1920   -19.4210 hc         1 A1A       0.074200
     62 H9         -16.6930    15.8310   -19.8900 ha         1 A1A       0.123500
     63 H10        -15.7000    17.7400   -21.0040 ha         1 A1A       0.126000
     64 H11        -21.2030    13.5160   -24.8340 ha         1 A1A       0.139000
     65 H12        -18.7510    15.7080   -21.1050 ha         1 A1A       0.131000
     66 H13        -17.0020     8.9270   -19.3280 hc         1 A1A       0.053867
     67 H14        -17.6600    10.5400   -19.5330 hc         1 A1A       0.053867
     68 H15        -16.6940     9.8090   -20.8320 hc         1 A1A       0.053867
     69 H16        -15.8180     9.8070   -17.0550 hc         1 A1A       0.053867
     70 H17        -14.9370    11.3410   -17.1480 hc         1 A1A       0.053867
     71 H18        -16.6910    11.2810   -17.4200 hc         1 A1A       0.053867
     72 H19        -18.0330    20.2010   -23.0920 h5         1 A1A       0.069100
     73 H20        -15.4900    16.5400   -24.5500 h3         1 A1A       0.113700
     74 H21        -14.7550    19.5140   -21.9900 h4         1 A1A       0.053100
     75 H22        -11.7890    19.3770   -25.8330 h1         1 A1A       0.109700
     76 H23        -10.0730    21.1720   -25.4220 hc         1 A1A       0.087950
     77 H24        -10.2330    20.9220   -23.6140 hc         1 A1A       0.087950
     78 H25         -9.5160    18.5170   -23.8770 hc         1 A1A       0.087950
     79 H26         -9.3540    18.7590   -25.6860 hc         1 A1A       0.087950
     80 H27        -21.7090     9.1850   -15.1160 h2         1 A1A       0.060700
     81 H28        -17.9360     8.8100   -16.0280 hc         1 A1A       0.090700
     82 H29        -18.8540     7.6260   -14.9830 hc         1 A1A       0.090700
     83 H30        -19.7380     6.4880   -17.0520 hc         1 A1A       0.090700
     84 H31        -18.8140     7.6700   -18.0940 hc         1 A1A       0.090700
     85 H32        -16.0010    14.3250   -18.1370 hn         1 A1A       0.514000
     86 H33        -19.4040    14.2850   -18.0070 hn         1 A1A       0.411400
     87 H34        -19.6070    10.7080   -16.7550 hn         1 A1A       0.337500
     88 O25        -20.1310    11.4530   -18.8070 os         1 A1A      -0.475100
     89 C13        -15.4930    10.5230   -19.1220 c3         1 A1A      -0.084000
     90 C34        -16.5210    16.1750   -24.5050 c3         1 A1A       0.333300
@<TRIPOS>BOND
     1     1     2 ar  
     2     1    14 ar  
     3     1    21 1   
     4     2     3 ar  
     5     2    54 1   
     6     3     8 ar  
     7     3    55 1   
     8     4     5 1   
     9     4     6 1   
    10     4    43 1   
    11     4    56 1   
    12     5    57 1   
    13     5    58 1   
    14     5    88 1   
    15     6     7 ar  
    16     6    18 ar  
    17     7    15 ar  
    18     7    59 1   
    19     8     9 1   
    20     8    13 ar  
    21     9    10 1   
    22     9    11 1   
    23     9    41 1   
    24    10    43 1   
    25    10    51 2   
    26    11    60 1   
    27    11    61 1   
    28    11    89 1   
    29    12    41 1   
    30    12    42 2   
    31    12    43 1   
    32    13    14 ar  
    33    13    62 1   
    34    14    63 1   
    35    15    16 ar  
    36    15    64 1   
    37    16    17 ar  
    38    16    53 1   
    39    17    18 ar  
    40    17    22 1   
    41    18    65 1   
    42    19    66 1   
    43    19    67 1   
    44    19    68 1   
    45    19    89 1   
    46    20    69 1   
    47    20    70 1   
    48    20    71 1   
    49    20    89 1   
    50    21    25 1   
    51    21    49 2   
    52    22    44 2   
    53    22    46 1   
    54    23    44 1   
    55    23    45 2   
    56    23    72 1   
    57    24    36 1   
    58    24    37 1   
    59    24    38 1   
    60    24    89 1   
    61    25    47 2   
    62    25    74 1   
    63    26    27 1   
    64    26    28 1   
    65    26    48 1   
    66    26    75 1   
    67    27    28 1   
    68    27    76 1   
    69    27    77 1   
    70    28    78 1   
    71    28    79 1   
    72    29    50 1   
    73    29    52 2   
    74    29    88 1   
    75    30    31 1   
    76    30    32 1   
    77    30    33 1   
    78    30    50 1   
    79    31    34 1   
    80    31    35 1   
    81    31    80 1   
    82    32    33 1   
    83    32    81 1   
    84    32    82 1   
    85    33    83 1   
    86    33    84 1   
    87    39    90 1   
    88    40    90 1   
    89    41    85 1   
    90    42    86 1   
    91    45    46 1   
    92    46    90 1   
    93    47    48 1   
    94    48    49 1   
    95    50    87 1   
    96    73    90 1   
@<TRIPOS>SUBSTRUCTURE
     1 A1A         1 TEMP              0 ****  ****    0 ROOT
