@<TRIPOS>MOLECULE
A1A
   51    53     1     0     0
SMALL
abcg2


@<TRIPOS>ATOM
      1 C4          23.1290   -48.6970    -8.2530 c6         1 A1A      -0.090400
      2 C5          21.6780   -48.7360    -8.7420 c6         1 A1A       0.172000
      3 C7          22.3830   -50.1480   -10.6270 c6         1 A1A       0.090000
      4 C10         20.4530   -46.8530   -10.5820 c          1 A1A       0.528100
      5 N12         20.9350   -45.6590   -10.9750 ns         1 A1A      -0.126000
      6 C13         20.3590   -44.4100   -10.6720 ca         1 A1A      -0.151000
      7 C20         21.1820   -43.3410   -10.3130 ca         1 A1A      -0.069000
      8 C21         20.7920   -49.7720    -8.0660 ca         1 A1A      -0.134300
      9 C22         21.0780   -50.2940    -6.8090 ca         1 A1A      -0.054500
     10 C24         19.0650   -51.6170    -6.8200 ca         1 A1A       0.143100
     11 C26         18.7590   -51.1000    -8.0770 ca         1 A1A      -0.178500
     12 C1          24.6700   -49.1240   -10.9760 c3         1 A1A      -0.084100
     13 C2          23.8480   -50.1430   -10.1960 c6         1 A1A      -0.078700
     14 C3          23.9240   -49.9250    -8.6820 c6         1 A1A      -0.071400
     15 N6          21.6920   -48.9400   -10.1910 n          1 A1A      -0.380800
     16 O9          21.4740   -48.1040   -12.2950 o          1 A1A      -0.591100
     17 O11         19.4160   -47.0250    -9.9690 o          1 A1A      -0.569100
     18 C14         18.9980   -44.1710   -10.7370 ca         1 A1A       0.394900
     19 N15         18.4580   -42.9950   -10.4390 nb         1 A1A      -0.730000
     20 C16         19.2420   -41.9830   -10.0880 ca         1 A1A       0.586900
     21 N17         18.6330   -40.7840    -9.8390 nv         1 A1A      -1.048900
     22 C18         20.6500   -42.1020   -10.0280 ca         1 A1A      -0.172300
     23 C19         21.5080   -40.9280    -9.6730 c3         1 A1A      -0.036800
     24 C23         20.2320   -51.2040    -6.1880 ca         1 A1A      -0.178500
     25 O25         18.2070   -52.5030    -6.2750 oh         1 A1A      -0.532100
     26 C27         19.6100   -50.1910    -8.6790 ca         1 A1A      -0.054500
     27 H1          23.5860   -47.7920    -8.6600 hc         1 A1A       0.048200
     28 H2          23.1570   -48.5750    -7.1690 hc         1 A1A       0.048200
     29 H3          21.2520   -47.7540    -8.5340 h1         1 A1A       0.075700
     30 H4          22.2910   -50.2390   -11.7070 h1         1 A1A       0.068200
     31 H5          21.8720   -51.0080   -10.1850 h1         1 A1A       0.068200
     32 H6          21.8240   -45.6470   -11.4540 hn         1 A1A       0.167000
     33 H7          22.2560   -43.4830   -10.2640 ha         1 A1A       0.114000
     34 H8          21.9770   -50.0020    -6.2830 ha         1 A1A       0.120000
     35 H9          17.8510   -51.4110    -8.5800 ha         1 A1A       0.122000
     36 H10         25.7160   -49.1560   -10.6660 hc         1 A1A       0.035700
     37 H11         24.6350   -49.3320   -12.0470 hc         1 A1A       0.035700
     38 H12         24.3170   -48.1030   -10.8300 hc         1 A1A       0.035700
     39 H13         24.2430   -51.1390   -10.4200 hc         1 A1A       0.055700
     40 H14         23.5400   -50.8120    -8.1700 hc         1 A1A       0.045700
     41 H15         24.9650   -49.8180    -8.3700 hc         1 A1A       0.045700
     42 H16         18.3070   -44.9460   -11.0420 h4         1 A1A       0.041100
     43 H17         17.6390   -40.8290    -9.6830 hn         1 A1A       0.468500
     44 H18         19.1030   -40.1290    -9.2370 hn         1 A1A       0.468500
     45 H19         21.3510   -40.0980   -10.3650 hc         1 A1A       0.041700
     46 H20         21.2910   -40.5530    -8.6700 hc         1 A1A       0.041700
     47 H21         22.5640   -41.1920    -9.7020 hc         1 A1A       0.041700
     48 H22         20.4920   -51.5920    -5.2090 ha         1 A1A       0.122000
     49 H23         18.5230   -52.7880    -5.4100 ho         1 A1A       0.464000
     50 H24         19.3430   -49.8030    -9.6520 ha         1 A1A       0.120000
     51 C8          21.2880   -48.0320   -11.0880 c          1 A1A       0.524100
@<TRIPOS>BOND
     1     1     2 1   
     2     1    14 1   
     3     1    27 1   
     4     1    28 1   
     5     2     8 1   
     6     2    15 1   
     7     2    29 1   
     8     3    13 1   
     9     3    15 1   
    10     3    30 1   
    11     3    31 1   
    12     4     5 1   
    13     4    17 2   
    14     4    51 1   
    15     5     6 1   
    16     5    32 1   
    17     6     7 ar  
    18     6    18 ar  
    19     7    22 ar  
    20     7    33 1   
    21     8     9 ar  
    22     8    26 ar  
    23     9    24 ar  
    24     9    34 1   
    25    10    11 ar  
    26    10    24 ar  
    27    10    25 1   
    28    11    26 ar  
    29    11    35 1   
    30    12    13 1   
    31    12    36 1   
    32    12    37 1   
    33    12    38 1   
    34    13    14 1   
    35    13    39 1   
    36    14    40 1   
    37    14    41 1   
    38    15    51 1   
    39    16    51 2   
    40    18    19 ar  
    41    18    42 1   
    42    19    20 ar  
    43    20    21 1   
    44    20    22 ar  
    45    21    43 1   
    46    21    44 1   
    47    22    23 1   
    48    23    45 1   
    49    23    46 1   
    50    23    47 1   
    51    24    48 1   
    52    25    49 1   
    53    26    50 1   
@<TRIPOS>SUBSTRUCTURE
     1 A1A         1 TEMP              0 ****  ****    0 ROOT
