@<TRIPOS>MOLECULE
A1A
   50    53     1     0     0
SMALL
No Charge or Current Charge


@<TRIPOS>ATOM
      1 N1         -22.3070   -10.1320   -41.3410 ns         1 A1A      -0.164000
      2 N3         -24.3790    -8.7060   -38.5640 nb         1 A1A      -0.600000
      3 C4         -24.0780    -7.4060   -38.7390 ca         1 A1A       0.349300
      4 C5         -23.8010    -5.0260   -38.7320 cc         1 A1A       0.403200
      5 C6         -23.8610    -3.5560   -38.4430 c3         1 A1A      -0.121400
      6 C7         -23.7980    -9.5780   -39.4210 ca         1 A1A       0.347900
      7 C8         -21.6700    -7.2650   -41.7160 c3         1 A1A       0.211600
      8 C10        -22.3300    -7.2980   -43.1080 c3         1 A1A      -0.086100
      9 C13        -21.0920   -15.8090   -44.2680 ca         1 A1A       0.484500
     10 C15        -20.0840   -18.9610   -45.2400 cc         1 A1A       0.203400
     11 C17        -22.3710   -14.4070   -42.7140 ca         1 A1A      -0.062000
     12 F2         -23.7260   -17.3400   -44.0300 f          1 A1A      -0.103000
     13 F          -22.3650   -17.8830   -42.4200 f          1 A1A      -0.103000
     14 F1         -24.0110   -16.5360   -42.0470 f          1 A1A      -0.103000
     15 C16        -22.1540   -15.6680   -43.3230 ca         1 A1A      -0.196300
     16 N5         -20.8730   -17.0680   -44.8790 na         1 A1A       0.216100
     17 N7         -19.9920   -18.0100   -44.3410 nd         1 A1A      -0.468800
     18 C14        -20.9580   -18.6120   -46.2740 cc         1 A1A       0.203400
     19 N6         -21.4720   -17.4190   -46.0920 nd         1 A1A      -0.468800
     20 N4         -20.3020   -14.7430   -44.5760 nb         1 A1A      -0.634000
     21 C12        -20.5220   -13.5520   -43.9880 ca         1 A1A       0.322900
     22 C11        -21.5400   -13.3220   -43.0500 ca         1 A1A      -0.053000
     23 N          -21.6710   -12.0120   -42.4980 ns         1 A1A      -0.154000
     24 C          -22.5610   -11.4720   -41.5800 c          1 A1A       0.665100
     25 O          -23.4720   -12.0960   -41.0510 o          1 A1A      -0.595100
     26 C1         -22.9140    -9.1840   -40.4640 ca         1 A1A      -0.055000
     27 S          -24.7450    -6.1440   -37.7260 ss         1 A1A      -0.158500
     28 N2         -23.0550    -5.5220   -39.7260 nd         1 A1A      -0.546100
     29 C3         -23.2270    -6.9050   -39.7140 ca         1 A1A       0.070400
     30 C2         -22.6080    -7.8000   -40.6140 ca         1 A1A      -0.079300
     31 O1         -20.4670    -8.0570   -41.7950 os         1 A1A      -0.479000
     32 C9         -19.5880    -7.9490   -40.6580 c3         1 A1A       0.139900
     33 H1         -21.5330    -9.7490   -41.8710 hn         1 A1A       0.180000
     34 H3         -23.5150    -3.3490   -37.4240 hc         1 A1A       0.064700
     35 H4         -23.2310    -2.9870   -39.1370 hc         1 A1A       0.064700
     36 H2         -24.8880    -3.1870   -38.5380 hc         1 A1A       0.064700
     37 H5         -24.0440   -10.6210   -39.2420 h4         1 A1A       0.047100
     38 H6         -21.4050    -6.2200   -41.5050 h1         1 A1A       0.075700
     39 H12        -21.6480    -6.8880   -43.8630 hc         1 A1A       0.050700
     40 H10        -22.5980    -8.3190   -43.4020 hc         1 A1A       0.050700
     41 H11        -23.2420    -6.6900   -43.1080 hc         1 A1A       0.050700
     42 H15        -19.5150   -19.8730   -45.1240 h4         1 A1A       0.056100
     43 H16        -23.1730   -14.2820   -41.9920 ha         1 A1A       0.177000
     44 H14        -21.2250   -19.1900   -47.1480 h4         1 A1A       0.056100
     45 H13        -19.8510   -12.7450   -44.2830 h4         1 A1A       0.029100
     46 H          -20.9820   -11.3540   -42.8400 hn         1 A1A       0.161000
     47 H8         -18.6880    -8.5570   -40.8140 h1         1 A1A       0.037700
     48 H7         -19.2740    -6.9080   -40.5050 h1         1 A1A       0.037700
     49 H9         -20.0800    -8.3010   -39.7430 h1         1 A1A       0.037700
     50 C18        -23.0630   -16.8570   -42.9560 c3         1 A1A       0.373300
@<TRIPOS>BOND
     1     1    24 1   
     2     1    26 1   
     3     1    33 1   
     4     2     3 ar  
     5     2     6 ar  
     6     3    27 1   
     7     3    29 ar  
     8     4     5 1   
     9     4    27 1   
    10     4    28 2   
    11     5    34 1   
    12     5    35 1   
    13     5    36 1   
    14     6    26 ar  
    15     6    37 1   
    16     7     8 1   
    17     7    30 1   
    18     7    31 1   
    19     7    38 1   
    20     8    39 1   
    21     8    40 1   
    22     8    41 1   
    23     9    15 ar  
    24     9    16 1   
    25     9    20 ar  
    26    10    17 2   
    27    10    18 1   
    28    10    42 1   
    29    11    15 ar  
    30    11    22 ar  
    31    11    43 1   
    32    12    50 1   
    33    13    50 1   
    34    14    50 1   
    35    15    50 1   
    36    16    17 1   
    37    16    19 1   
    38    18    19 2   
    39    18    44 1   
    40    20    21 ar  
    41    21    22 ar  
    42    21    45 1   
    43    22    23 1   
    44    23    24 1   
    45    23    46 1   
    46    24    25 2   
    47    26    30 ar  
    48    28    29 1   
    49    29    30 ar  
    50    31    32 1   
    51    32    47 1   
    52    32    48 1   
    53    32    49 1   
@<TRIPOS>SUBSTRUCTURE
     1 A1A         1 TEMP              0 ****  ****    0 ROOT
