@<TRIPOS>MOLECULE
A1A
   46    48     1     0     0
SMALL
No Charge or Current Charge


@<TRIPOS>ATOM
      1 N3          19.6510   -42.8160    -9.2180 nb         1 A1A      -0.643000
      2 C4          19.8840   -44.1300    -9.4550 ca         1 A1A       0.322900
      3 C5          20.8970   -44.5900   -10.3360 ca         1 A1A      -0.079000
      4 C6          21.6940   -43.6330   -10.9910 ca         1 A1A      -0.133000
      5 C8          20.5510   -47.1280   -10.1250 c          1 A1A       0.535100
      6 C13         21.5980   -51.6090    -8.0110 c6         1 A1A      -0.074400
      7 C15         21.9860   -49.1210    -8.3500 c6         1 A1A       0.092000
      8 C17         24.6710   -51.7180    -9.4430 cc         1 A1A      -0.161000
      9 C1          21.4550   -42.2680   -10.7500 ca         1 A1A      -0.099300
     10 C2          20.4260   -41.9090    -9.8560 ca         1 A1A       0.314900
     11 N7          21.1570   -45.9670   -10.5950 ns         1 A1A      -0.132000
     12 C9          21.2290   -48.4520   -10.7020 c          1 A1A       0.523100
     13 N10         21.9170   -49.3290    -9.8220 n          1 A1A      -0.392800
     14 C11         22.4440   -50.6510   -10.2670 c6         1 A1A       0.176000
     15 C12         21.6450   -51.7840    -9.5550 c6         1 A1A      -0.085400
     16 C14         21.1340   -50.1840    -7.6240 c6         1 A1A      -0.099400
     17 C16         23.9580   -50.7170   -10.0550 cd         1 A1A      -0.191300
     18 C18         26.0370   -51.4030    -9.4750 cc         1 A1A      -0.181000
     19 C19         26.2020   -50.2110   -10.1180 cd         1 A1A      -0.192000
     20 N20         24.9210   -49.7870   -10.4950 na         1 A1A       0.034000
     21 O22         19.5940   -47.1510    -9.3500 o          1 A1A      -0.548100
     22 O23         21.1650   -48.6980   -11.9060 o          1 A1A      -0.575100
     23 H1          19.2350   -44.8160    -8.9160 h4         1 A1A       0.053100
     24 H2          22.4840   -43.9410   -11.6730 ha         1 A1A       0.113000
     25 H4          22.5890   -51.7970    -7.5760 hc         1 A1A       0.047700
     26 H5          23.0330   -49.2070    -8.0220 h1         1 A1A       0.059700
     27 H6          21.6510   -48.1160    -8.0640 h1         1 A1A       0.059700
     28 H7          24.2730   -52.6260    -8.9970 ha         1 A1A       0.131000
     29 H8          23.9610   -48.7830   -12.0810 h1         1 A1A       0.050033
     30 H9          24.1980   -47.8100   -10.5930 h1         1 A1A       0.050033
     31 H10         25.5840   -48.1620   -11.6670 h1         1 A1A       0.050033
     32 H14         20.2140   -40.8620    -9.6430 h4         1 A1A       0.022100
     33 H15         21.9220   -46.1270   -11.2390 hn         1 A1A       0.157000
     34 H16         22.2680   -50.7730   -11.3460 h1         1 A1A       0.088700
     35 H17         20.6150   -51.7750    -9.9390 hc         1 A1A       0.057200
     36 H18         22.0520   -52.7680    -9.8200 hc         1 A1A       0.057200
     37 H19         21.2070   -50.0460    -6.5370 hc         1 A1A       0.057200
     38 H20         20.0760   -50.0510    -7.8890 hc         1 A1A       0.057200
     39 H21         26.8260   -52.0230    -9.0560 ha         1 A1A       0.134000
     40 H22         27.1000   -49.6470   -10.3430 h4         1 A1A       0.143000
     41 C24         22.2990   -41.2050   -11.4380 c3         1 A1A      -0.044800
     42 H3          20.9230   -52.3550    -7.5700 hc         1 A1A       0.047700
     43 C21         24.6480   -48.5590   -11.2560 c3         1 A1A       0.054900
     44 H11         22.4710   -41.4570   -12.4910 hc         1 A1A       0.046700
     45 H12         21.8120   -40.2230   -11.4090 hc         1 A1A       0.046700
     46 H13         23.2770   -41.1080   -10.9520 hc         1 A1A       0.046700
@<TRIPOS>BOND
     1     1     2 ar  
     2     1    10 ar  
     3     2     3 ar  
     4     2    23 1   
     5     3     4 ar  
     6     3    11 1   
     7     4     9 ar  
     8     4    24 1   
     9     5    11 1   
    10     5    12 1   
    11     5    21 2   
    12     6    15 1   
    13     6    16 1   
    14     6    25 1   
    15     6    42 1   
    16     7    13 1   
    17     7    16 1   
    18     7    26 1   
    19     7    27 1   
    20     8    17 2   
    21     8    18 1   
    22     8    28 1   
    23     9    10 ar  
    24     9    41 1   
    25    10    32 1   
    26    11    33 1   
    27    12    13 1   
    28    12    22 2   
    29    13    14 1   
    30    14    15 1   
    31    14    17 1   
    32    14    34 1   
    33    15    35 1   
    34    15    36 1   
    35    16    37 1   
    36    16    38 1   
    37    17    20 1   
    38    18    19 2   
    39    18    39 1   
    40    19    20 1   
    41    19    40 1   
    42    20    43 1   
    43    29    43 1   
    44    30    43 1   
    45    31    43 1   
    46    41    44 1   
    47    41    45 1   
    48    41    46 1   
@<TRIPOS>SUBSTRUCTURE
     1 A1A         1 TEMP              0 ****  ****    0 ROOT
