@<TRIPOS>MOLECULE
A1A
   50    52     1     0     0
SMALL
abcg2


@<TRIPOS>ATOM
      1 C4          23.7460   -49.7770    -8.9050 c6         1 A1A      -0.089400
      2 C5          22.2400   -49.7820    -9.1820 c6         1 A1A       0.164000
      3 C7          22.6230   -51.3070   -11.0750 c6         1 A1A       0.091000
      4 C10         20.8400   -47.9360   -10.9050 c          1 A1A       0.528100
      5 N12         21.3860   -46.7650   -11.2790 ns         1 A1A      -0.130000
      6 C13         20.8860   -45.4970   -10.9180 ca         1 A1A      -0.156000
      7 C20         21.7510   -44.5200   -10.4220 ca         1 A1A      -0.063000
      8 C21         21.4210   -50.7440    -8.3320 ca         1 A1A      -0.096300
      9 C22         21.8640   -51.1890    -7.0890 ca         1 A1A      -0.094500
     10 C24         19.8270   -52.4280    -6.7490 ca         1 A1A      -0.105000
     11 C26         20.1600   -51.1540    -8.7650 ca         1 A1A      -0.094500
     12 C1          24.8760   -50.4000   -11.7900 c3         1 A1A      -0.084100
     13 C2          24.1330   -51.3430   -10.8510 c6         1 A1A      -0.079700
     14 C3          24.4260   -51.0570    -9.3750 c6         1 A1A      -0.072400
     15 N6          22.0420   -50.0550   -10.6050 n          1 A1A      -0.382800
     16 O9          21.5760   -49.2770   -12.6930 o          1 A1A      -0.586100
     17 O11         19.8170   -48.0610   -10.2580 o          1 A1A      -0.567100
     18 C14         19.5520   -45.1590   -11.0510 ca         1 A1A       0.398900
     19 N15         19.0700   -43.9720   -10.7050 nb         1 A1A      -0.731000
     20 C16         19.8950   -43.0440   -10.2320 ca         1 A1A       0.590900
     21 N17         19.3530   -41.8230    -9.9450 nv         1 A1A      -1.050900
     22 C18         21.2820   -43.2700   -10.0820 ca         1 A1A      -0.175300
     23 C19         22.1890   -42.1930    -9.5750 c3         1 A1A      -0.036800
     24 C23         21.0760   -52.0220    -6.3040 ca         1 A1A      -0.113000
     25 C25         19.3720   -51.9880    -7.9850 ca         1 A1A      -0.113000
     26 H1          23.9340   -49.6000    -7.8460 hc         1 A1A       0.048200
     27 H2          24.1680   -48.9130    -9.4240 hc         1 A1A       0.048200
     28 H3          21.8730   -48.7780    -8.9680 h1         1 A1A       0.073700
     29 H4          22.3760   -51.4390   -12.1260 h1         1 A1A       0.068200
     30 H5          22.1510   -52.1260   -10.5250 h1         1 A1A       0.068200
     31 H6          22.2570   -46.7880   -11.7900 hn         1 A1A       0.165000
     32 H7          22.8060   -44.7440   -10.3090 ha         1 A1A       0.114000
     33 H8          22.8350   -50.8960    -6.7110 ha         1 A1A       0.118500
     34 H9          19.2140   -53.0800    -6.1400 ha         1 A1A       0.113000
     35 H10         19.7810   -50.8210    -9.7220 ha         1 A1A       0.118500
     36 H11         25.9530   -50.4700   -11.6300 hc         1 A1A       0.035367
     37 H12         24.6780   -50.6520   -12.8320 hc         1 A1A       0.035367
     38 H13         24.5920   -49.3560   -11.6460 hc         1 A1A       0.035367
     39 H14         24.4570   -52.3640   -11.0720 hc         1 A1A       0.055700
     40 H15         24.0790   -51.9010    -8.7710 hc         1 A1A       0.046700
     41 H16         25.5040   -50.9840    -9.2140 hc         1 A1A       0.046700
     42 H17         18.8370   -45.8670   -11.4530 h4         1 A1A       0.039100
     43 H18         18.3490   -41.8000    -9.8660 hn         1 A1A       0.470000
     44 H19         19.8240   -41.2380    -9.2760 hn         1 A1A       0.470000
     45 H20         22.1540   -41.3080   -10.2140 hc         1 A1A       0.041700
     46 H21         21.9130   -41.8700    -8.5670 hc         1 A1A       0.041700
     47 H22         23.2210   -42.5360    -9.5370 hc         1 A1A       0.041700
     48 H23         21.4460   -52.3550    -5.3430 ha         1 A1A       0.113500
     49 H24         18.3980   -52.2930    -8.3460 ha         1 A1A       0.113500
     50 C8          21.5600   -49.1590   -11.4770 c          1 A1A       0.525100
@<TRIPOS>BOND
     1     1     2 1   
     2     1    14 1   
     3     1    26 1   
     4     1    27 1   
     5     2     8 1   
     6     2    15 1   
     7     2    28 1   
     8     3    13 1   
     9     3    15 1   
    10     3    29 1   
    11     3    30 1   
    12     4     5 1   
    13     4    17 2   
    14     4    50 1   
    15     5     6 1   
    16     5    31 1   
    17     6     7 ar  
    18     6    18 ar  
    19     7    22 ar  
    20     7    32 1   
    21     8     9 ar  
    22     8    11 ar  
    23     9    24 ar  
    24     9    33 1   
    25    10    24 ar  
    26    10    25 ar  
    27    10    34 1   
    28    11    25 ar  
    29    11    35 1   
    30    12    13 1   
    31    12    36 1   
    32    12    37 1   
    33    12    38 1   
    34    13    14 1   
    35    13    39 1   
    36    14    40 1   
    37    14    41 1   
    38    15    50 1   
    39    16    50 2   
    40    18    19 ar  
    41    18    42 1   
    42    19    20 ar  
    43    20    21 1   
    44    20    22 ar  
    45    21    43 1   
    46    21    44 1   
    47    22    23 1   
    48    23    45 1   
    49    23    46 1   
    50    23    47 1   
    51    24    48 1   
    52    25    49 1   
@<TRIPOS>SUBSTRUCTURE
     1 A1A         1 TEMP              0 ****  ****    0 ROOT
