@<TRIPOS>MOLECULE
A1A
   47    46     1     0     0
SMALL
abcg2


@<TRIPOS>ATOM
      1 C01        -13.6710   -11.8630    29.0240 c3         1 A1A      -0.115100
      2 C02        -14.8400   -12.5050    29.7580 c3         1 A1A       0.107000
      3 C03        -16.3980   -13.3730    28.0710 c          1 A1A       0.619100
      4 C04        -16.9040   -14.6370    27.3760 c3         1 A1A       0.016700
      5 C05        -17.8760   -15.4010    28.2810 c3         1 A1A      -0.040400
      6 C06        -19.0710   -14.5850    28.7500 c3         1 A1A      -0.425400
      7 C07        -21.0370   -16.5900    28.2210 c3         1 A1A      -0.397400
      8 C08        -22.2570   -17.4500    28.5590 c3         1 A1A      -0.152700
      9 C09        -22.8450   -18.0310    27.2690 c3         1 A1A      -0.026400
     10 C10        -24.0980   -18.8680    27.4710 c3         1 A1A      -0.190400
     11 C11        -24.7780   -19.3990    26.1920 c          1 A1A       0.710000
     12 C12        -21.9010   -18.5770    29.5510 c          1 A1A       0.737000
     13 C14        -13.8290   -16.2120    25.8220 c3         1 A1A      -0.179100
     14 N01        -15.4630   -13.5760    29.0110 ns         1 A1A      -0.500900
     15 N02        -15.8260   -15.5260    27.0050 ns         1 A1A      -0.497900
     16 O01        -16.8830   -12.2780    27.8250 o          1 A1A      -0.611100
     17 O02        -19.6690   -16.4770    30.6260 o          1 A1A      -0.829500
     18 O03        -21.4360   -14.6280    30.0970 o          1 A1A      -0.829500
     19 O04        -24.2440   -19.1420    25.0940 o          1 A1A      -0.788000
     20 O05        -25.8240   -20.0590    26.3700 o          1 A1A      -0.788000
     21 O06        -21.0670   -19.4200    29.1520 o          1 A1A      -0.767500
     22 O07        -22.4810   -18.5820    30.6570 o          1 A1A      -0.767500
     23 O08        -14.7810   -14.0170    25.7100 o          1 A1A      -0.626100
     24 P01        -20.3630   -15.5860    29.6130 p5         1 A1A       1.397000
     25 H1         -13.2190   -11.0850    29.6400 hc         1 A1A       0.028700
     26 H2         -12.9010   -12.6000    28.7940 hc         1 A1A       0.028700
     27 H3         -13.9960   -11.4060    28.0890 hc         1 A1A       0.028700
     28 H4         -15.5960   -11.7570    29.9930 h1         1 A1A       0.045700
     29 H5         -14.5030   -12.9220    30.7070 h1         1 A1A       0.045700
     30 H6         -17.4410   -14.3030    26.4820 h1         1 A1A       0.087700
     31 H7         -18.2150   -16.2760    27.7170 hc         1 A1A       0.053700
     32 H8         -17.3320   -15.7860    29.1470 hc         1 A1A       0.053700
     33 H9         -18.7520   -13.8110    29.4550 hc         1 A1A       0.040700
     34 H10        -19.5320   -14.0600    27.9080 hc         1 A1A       0.040700
     35 H11        -20.2510   -17.2340    27.8140 hc         1 A1A       0.013200
     36 H12        -21.2990   -15.8890    27.4200 hc         1 A1A       0.013200
     37 H13        -23.0170   -16.8090    29.0210 hc         1 A1A       0.031700
     38 H14        -22.0760   -18.6300    26.7730 hc         1 A1A       0.009200
     39 H15        -23.0690   -17.2060    26.5860 hc         1 A1A       0.009200
     40 H16        -24.8400   -18.2920    28.0370 hc         1 A1A       0.025700
     41 H17        -23.8700   -19.7320    28.1050 hc         1 A1A       0.025700
     42 H18        -12.8560   -15.9120    26.2110 hc         1 A1A       0.047700
     43 H19        -14.0720   -17.1930    26.2240 hc         1 A1A       0.047700
     44 H20        -13.7350   -16.2930    24.7390 hc         1 A1A       0.047700
     45 H21        -15.0630   -14.4970    29.0950 hn         1 A1A       0.309500
     46 H22        -15.8760   -16.4860    27.3080 hn         1 A1A       0.326500
     47 C13        -14.8470   -15.1520    26.1590 c          1 A1A       0.585100
@<TRIPOS>BOND
     1     1     2 1   
     2     1    25 1   
     3     1    26 1   
     4     1    27 1   
     5     2    14 1   
     6     2    28 1   
     7     2    29 1   
     8     3     4 1   
     9     3    14 1   
    10     3    16 2   
    11     4     5 1   
    12     4    15 1   
    13     4    30 1   
    14     5     6 1   
    15     5    31 1   
    16     5    32 1   
    17     6    24 1   
    18     6    33 1   
    19     6    34 1   
    20     7     8 1   
    21     7    24 1   
    22     7    35 1   
    23     7    36 1   
    24     8     9 1   
    25     8    12 1   
    26     8    37 1   
    27     9    10 1   
    28     9    38 1   
    29     9    39 1   
    30    10    11 1   
    31    10    40 1   
    32    10    41 1   
    33    11    19 1   
    34    11    20 1   
    35    12    21 1   
    36    12    22 1   
    37    13    42 1   
    38    13    43 1   
    39    13    44 1   
    40    13    47 1   
    41    14    45 1   
    42    15    46 1   
    43    15    47 1   
    44    17    24 1   
    45    18    24 1   
    46    23    47 2   
@<TRIPOS>SUBSTRUCTURE
     1 A1A         1 TEMP              0 ****  ****    0 ROOT
