@<TRIPOS>MOLECULE
A1A
   55    56     1     0     0
SMALL
abcg2


@<TRIPOS>ATOM
      1 C1          34.4970   -20.2280    24.4500 c3         1 A1A      -0.109100
      2 C2          33.5380   -21.4070    24.4320 c3         1 A1A       0.102000
      3 C4          33.2100   -21.4930    21.9820 c3         1 A1A       0.091000
      4 C5          33.3680   -20.1990    21.2050 c3         1 A1A       0.142600
      5 C7          31.2810   -21.5250    23.5390 c          1 A1A       0.667100
      6 C11         28.5520   -22.6920    23.0260 ca         1 A1A      -0.225000
      7 C12         27.2200   -23.0280    22.8160 ca         1 A1A       0.196100
      8 C16         27.0400   -23.5860    25.8480 c3         1 A1A      -0.131100
      9 C17         26.4240   -25.8550    24.9110 c3         1 A1A       0.305000
     10 C21         26.4450   -22.3530    21.8600 ca         1 A1A      -0.188600
     11 C23         28.3670   -20.9850    21.3820 ca         1 A1A       0.066000
     12 O26         24.5000   -22.0450    20.5540 o          1 A1A      -0.592100
     13 C31         21.1630   -24.6700    20.7370 ca         1 A1A      -0.148000
     14 C32         20.2350   -24.2170    21.6620 ca         1 A1A      -0.079000
     15 C33         20.6380   -23.5160    22.7880 ca         1 A1A      -0.116000
     16 C34         21.9870   -23.2590    22.9740 ca         1 A1A       0.128000
     17 C10         29.1590   -21.6600    22.3140 ca         1 A1A       0.038000
     18 C14         27.1850   -24.5550    24.6910 c3         1 A1A       0.117300
     19 C22         27.0650   -21.3250    21.1470 ca         1 A1A      -0.038000
     20 C28         22.9490   -23.7040    22.0680 ca         1 A1A      -0.073000
     21 C29         22.5000   -24.4140    20.9610 ca         1 A1A       0.198000
     22 F18         26.5710   -26.6870    23.8780 f          1 A1A      -0.106333
     23 F19         26.8670   -26.4810    26.0040 f          1 A1A      -0.106333
     24 F20         25.1110   -25.6540    25.0730 f          1 A1A      -0.106333
     25 F24         28.9200   -19.9690    20.6960 f          1 A1A      -0.179000
     26 F30         23.4070   -24.8720    20.0950 f          1 A1A      -0.159000
     27 N27         24.3130   -23.4700    22.2790 ns         1 A1A      -0.149000
     28 N3          32.6140   -21.3720    23.3060 n          1 A1A      -0.427800
     29 N9          30.4880   -21.3180    22.4250 ns         1 A1A      -0.171000
     30 O13         26.6320   -24.0430    23.4910 os         1 A1A      -0.365100
     31 O6          32.1000   -19.7520    20.7590 oh         1 A1A      -0.678000
     32 O8          30.8110   -21.8000    24.6330 o          1 A1A      -0.626100
     33 H1          35.1260   -20.2860    25.3390 hc         1 A1A       0.041033
     34 H2          35.1610   -20.2200    23.5850 hc         1 A1A       0.041033
     35 H3          33.9570   -19.2820    24.4770 hc         1 A1A       0.041033
     36 H4          32.9580   -21.4200    25.3500 h1         1 A1A       0.059200
     37 H5          34.1030   -22.3440    24.4010 h1         1 A1A       0.059200
     38 H6          32.6510   -22.2160    21.3820 h1         1 A1A       0.062200
     39 H7          34.2040   -21.9250    22.1110 h1         1 A1A       0.062200
     40 H8          34.0270   -20.3960    20.3520 h1         1 A1A       0.039200
     41 H9          33.8540   -19.4440    21.8270 h1         1 A1A       0.039200
     42 H10         29.1480   -23.2380    23.7400 ha         1 A1A       0.145000
     43 H11         27.4270   -24.0210    26.7670 hc         1 A1A       0.067367
     44 H12         27.6160   -22.6830    25.6530 hc         1 A1A       0.067367
     45 H13         26.0000   -23.3020    26.0030 hc         1 A1A       0.067367
     46 H14         20.8570   -25.2240    19.8600 ha         1 A1A       0.137000
     47 H15         19.1830   -24.4140    21.5060 ha         1 A1A       0.122000
     48 H16         19.9130   -23.1650    23.5080 ha         1 A1A       0.133000
     49 H17         28.2340   -24.8360    24.5530 h1         1 A1A       0.081700
     50 H18         26.5030   -20.7730    20.4050 ha         1 A1A       0.161000
     51 H19         24.7380   -23.8440    23.1130 hn         1 A1A       0.184000
     52 H20         30.8750   -20.7100    21.7010 hn         1 A1A       0.205000
     53 H21         32.0940   -18.7920    20.7030 ho         1 A1A       0.463000
     54 C25         25.0170   -22.6090    21.5040 c          1 A1A       0.636700
     55 CL35        22.5050   -22.3700    24.3590 cl         1 A1A      -0.190000
@<TRIPOS>BOND
     1     1     2 1   
     2     1    33 1   
     3     1    34 1   
     4     1    35 1   
     5     2    28 1   
     6     2    36 1   
     7     2    37 1   
     8     3     4 1   
     9     3    28 1   
    10     3    38 1   
    11     3    39 1   
    12     4    31 1   
    13     4    40 1   
    14     4    41 1   
    15     5    28 1   
    16     5    29 1   
    17     5    32 2   
    18     6     7 ar  
    19     6    17 ar  
    20     6    42 1   
    21     7    10 ar  
    22     7    30 1   
    23     8    18 1   
    24     8    43 1   
    25     8    44 1   
    26     8    45 1   
    27     9    18 1   
    28     9    22 1   
    29     9    23 1   
    30     9    24 1   
    31    10    19 ar  
    32    10    54 1   
    33    11    17 ar  
    34    11    19 ar  
    35    11    25 1   
    36    12    54 2   
    37    13    14 ar  
    38    13    21 ar  
    39    13    46 1   
    40    14    15 ar  
    41    14    47 1   
    42    15    16 ar  
    43    15    48 1   
    44    16    20 ar  
    45    16    55 1   
    46    17    29 1   
    47    18    30 1   
    48    18    49 1   
    49    19    50 1   
    50    20    21 ar  
    51    20    27 1   
    52    21    26 1   
    53    27    51 1   
    54    27    54 1   
    55    29    52 1   
    56    31    53 1   
@<TRIPOS>SUBSTRUCTURE
     1 A1A         1 TEMP              0 ****  ****    0 ROOT
