@<TRIPOS>MOLECULE
A1A
   31    32     1     0     0
SMALL
No Charge or Current Charge


@<TRIPOS>ATOM
      1 C13         47.6050   -44.0620    -4.2020 c6         1 A1A      -0.067400
      2 C15         49.0940   -44.2850    -6.2920 c6         1 A1A       0.201800
      3 C04         49.5830   -47.6590    -7.7520 ca         1 A1A      -0.172600
      4 C05         50.5760   -48.4380    -8.3980 ca         1 A1A      -0.073000
      5 C06         51.9370   -48.1200    -8.2720 ca         1 A1A      -0.141000
      6 C07         52.3320   -47.0240    -7.4970 ca         1 A1A      -0.073000
      7 C08         51.3610   -46.2520    -6.8440 ca         1 A1A      -0.171000
      8 C09         49.9890   -46.5540    -6.9570 ca         1 A1A       0.329000
      9 C11         48.3460   -46.3760    -5.0540 c6         1 A1A       0.201800
     10 C12         48.2890   -45.4090    -3.8450 c6         1 A1A      -0.076400
     11 C14         47.8020   -43.6750    -5.6940 c6         1 A1A      -0.076400
     12 N01         47.8390   -49.3130    -8.1730 nt         1 A1A      -0.617000
     13 N10         49.0790   -45.7760    -6.2090 nh         1 A1A      -0.788400
     14 O03         47.2210   -47.1970    -8.0190 o          1 A1A      -0.580100
     15 H132        48.0080   -43.2720    -3.5540 hc         1 A1A       0.050200
     16 H131        46.5300   -44.1180    -3.9850 hc         1 A1A       0.050200
     17 H151        49.9640   -43.8820    -5.7520 h1         1 A1A       0.032950
     18 H152        49.1800   -43.9710    -7.3420 h1         1 A1A       0.032950
     19 H051        50.3000   -49.2800    -9.0290 ha         1 A1A       0.114000
     20 H061        52.6850   -48.7230    -8.7810 ha         1 A1A       0.116000
     21 H071        53.3870   -46.7780    -7.3950 ha         1 A1A       0.112000
     22 H081        51.6810   -45.4200    -6.2230 ha         1 A1A       0.115000
     23 H112        47.3210   -46.6390    -5.3540 h1         1 A1A       0.032950
     24 H111        48.8400   -47.3070    -4.7380 h1         1 A1A       0.032950
     25 H122        49.3140   -45.2190    -3.4960 hc         1 A1A       0.041450
     26 H121        47.7640   -45.8860    -3.0060 hc         1 A1A       0.041450
     27 H142        47.8180   -42.5820    -5.7990 hc         1 A1A       0.041450
     28 H141        46.9410   -44.0270    -6.2790 hc         1 A1A       0.041450
     29 H012        46.8820   -49.5830    -8.3410 hn         1 A1A       0.311500
     30 H011        48.5690   -50.0060    -8.1290 hn         1 A1A       0.311500
     31 C02         48.1280   -48.0100    -7.9540 c          1 A1A       0.623700
@<TRIPOS>BOND
     1     1    10 1   
     2     1    11 1   
     3     1    15 1   
     4     1    16 1   
     5     2    11 1   
     6     2    13 1   
     7     2    17 1   
     8     2    18 1   
     9     3     4 ar  
    10     3     8 ar  
    11     3    31 1   
    12     4     5 ar  
    13     4    19 1   
    14     5     6 ar  
    15     5    20 1   
    16     6     7 ar  
    17     6    21 1   
    18     7     8 ar  
    19     7    22 1   
    20     8    13 1   
    21     9    10 1   
    22     9    13 1   
    23     9    23 1   
    24     9    24 1   
    25    10    25 1   
    26    10    26 1   
    27    11    27 1   
    28    11    28 1   
    29    12    29 1   
    30    12    30 1   
    31    12    31 1   
    32    14    31 2   
@<TRIPOS>SUBSTRUCTURE
     1 A1A         1 TEMP              0 ****  ****    0 ROOT
