@<TRIPOS>MOLECULE
A1A
   19    19     1     0     0
SMALL
No Charge or Current Charge


@<TRIPOS>ATOM
      1 C01        -64.7630    24.9300   -16.4570 c3         1 A1A       0.038900
      2 C03        -62.6050    22.9890   -16.5760 ca         1 A1A       0.490300
      3 C05        -60.6420    24.2030   -16.2680 ca         1 A1A       0.366900
      4 C06        -59.8550    23.0540   -16.3730 ca         1 A1A      -0.180000
      5 C07        -60.4800    21.8200   -16.5890 ca         1 A1A      -0.020000
      6 C08        -61.8900    21.7620   -16.6970 ca         1 A1A      -0.196600
      7 C09        -62.5090    20.4010   -16.9300 c          1 A1A       0.626700
      8 N04        -61.9850    24.1720   -16.3670 nb         1 A1A      -0.699000
      9 N11        -63.8420    20.2510   -17.0450 nt         1 A1A      -0.597000
     10 O10        -61.8250    19.3950   -17.0220 o          1 A1A      -0.594100
     11 S02        -64.3980    23.1260   -16.6830 ss         1 A1A      -0.375300
     12 H011       -65.8460    25.0970   -16.5100 h1         1 A1A       0.070367
     13 H012       -64.3980    25.2670   -15.4790 h1         1 A1A       0.070367
     14 H013       -64.2740    25.5140   -17.2470 h1         1 A1A       0.070367
     15 H051       -60.1870    25.1780   -16.1000 h4         1 A1A       0.022100
     16 H061       -58.7740    23.1250   -16.2870 ha         1 A1A       0.131000
     17 H071       -59.8680    20.9230   -16.6710 ha         1 A1A       0.136000
     18 H111       -64.2210    19.3290   -17.2000 hn         1 A1A       0.320000
     19 H112       -64.4510    21.0530   -16.9760 hn         1 A1A       0.320000
@<TRIPOS>BOND
     1     1    11 1   
     2     1    12 1   
     3     1    13 1   
     4     1    14 1   
     5     2     6 ar  
     6     2     8 ar  
     7     2    11 1   
     8     3     4 ar  
     9     3     8 ar  
    10     3    15 1   
    11     4     5 ar  
    12     4    16 1   
    13     5     6 ar  
    14     5    17 1   
    15     6     7 1   
    16     7     9 1   
    17     7    10 2   
    18     9    18 1   
    19     9    19 1   
@<TRIPOS>SUBSTRUCTURE
     1 A1A         1 TEMP              0 ****  ****    0 ROOT
