@<TRIPOS>MOLECULE
A1A
   39    40     1     0     0
SMALL
abcg2


@<TRIPOS>ATOM
      1 C1         -33.4280    22.2660    22.5970 c3         1 A1A      -0.182100
      2 C2         -32.0340    22.4850    22.0640 c          1 A1A       0.608100
      3 C5         -29.6630    21.9740    22.6340 ca         1 A1A      -0.017000
      4 C6         -29.0330    22.4120    21.4710 ca         1 A1A      -0.153500
      5 C7         -27.6450    22.3990    21.3950 ca         1 A1A      -0.065000
      6 C8         -26.8510    21.9670    22.4470 ca         1 A1A      -0.104300
      7 C11        -25.3470    21.9780    22.3570 c3         1 A1A       0.227600
      8 C15        -24.5770    25.5560    23.6810 c6         1 A1A      -0.072400
      9 C16        -23.0550    25.4800    23.6790 c6         1 A1A      -0.075400
     10 C17        -22.5870    24.1000    24.1220 c6         1 A1A      -0.072400
     11 C18        -23.2010    22.9970    23.2660 c6         1 A1A      -0.072900
     12 C10        -28.8710    21.5290    23.6960 ca         1 A1A      -0.153500
     13 C13        -24.7310    23.0600    23.2620 c6         1 A1A      -0.094700
     14 C14        -25.1920    24.4520    22.8280 c6         1 A1A      -0.072900
     15 C9         -27.4920    21.5250    23.6030 ca         1 A1A      -0.065000
     16 N4         -31.0500    21.9260    22.8160 ns         1 A1A      -0.148000
     17 O12        -24.9110    20.6750    22.6890 oh         1 A1A      -0.656000
     18 O3         -31.8320    23.1220    21.0450 o          1 A1A      -0.583100
     19 H1         -33.8710    23.2310    22.8440 hc         1 A1A       0.062700
     20 H2         -34.0440    21.8170    21.8190 hc         1 A1A       0.062700
     21 H3         -33.4710    21.6330    23.4810 hc         1 A1A       0.062700
     22 H4         -29.6030    22.7540    20.6230 ha         1 A1A       0.127000
     23 H5         -27.1760    22.7400    20.4790 ha         1 A1A       0.116500
     24 H6         -25.0660    22.2230    21.3200 h1         1 A1A       0.031700
     25 H8         -24.9410    25.4620    24.7100 hc         1 A1A       0.039450
     26 H9         -22.6340    26.2510    24.3290 hc         1 A1A       0.038700
     27 H10        -22.6820    25.6830    22.6700 hc         1 A1A       0.038700
     28 H11        -22.8700    23.9410    25.1680 hc         1 A1A       0.039450
     29 H12        -21.4970    24.0350    24.0830 hc         1 A1A       0.039450
     30 H13        -22.8510    22.0310    23.6390 hc         1 A1A       0.039450
     31 H14        -22.8370    23.0920    22.2350 hc         1 A1A       0.039450
     32 H15        -29.3430    21.1820    24.6080 ha         1 A1A       0.127000
     33 H16        -25.0820    22.8860    24.2890 hc         1 A1A       0.059700
     34 H17        -24.9110    24.6080    21.7790 hc         1 A1A       0.039450
     35 H18        -26.2810    24.5210    22.8700 hc         1 A1A       0.039450
     36 H19        -26.9150    21.1740    24.4490 ha         1 A1A       0.116500
     37 H20        -31.3480    21.4550    23.6570 hn         1 A1A       0.149000
     38 H21        -23.9580    20.6280    22.5640 ho         1 A1A       0.442000
     39 H7         -24.9110    26.5320    23.3220 hc         1 A1A       0.039450
@<TRIPOS>BOND
     1     1     2 1   
     2     1    19 1   
     3     1    20 1   
     4     1    21 1   
     5     2    16 1   
     6     2    18 2   
     7     3     4 ar  
     8     3    12 ar  
     9     3    16 1   
    10     4     5 ar  
    11     4    22 1   
    12     5     6 ar  
    13     5    23 1   
    14     6     7 1   
    15     6    15 ar  
    16     7    13 1   
    17     7    17 1   
    18     7    24 1   
    19     8     9 1   
    20     8    14 1   
    21     8    25 1   
    22     8    39 1   
    23     9    10 1   
    24     9    26 1   
    25     9    27 1   
    26    10    11 1   
    27    10    28 1   
    28    10    29 1   
    29    11    13 1   
    30    11    30 1   
    31    11    31 1   
    32    12    15 ar  
    33    12    32 1   
    34    13    14 1   
    35    13    33 1   
    36    14    34 1   
    37    14    35 1   
    38    15    36 1   
    39    16    37 1   
    40    17    38 1   
@<TRIPOS>SUBSTRUCTURE
     1 A1A         1 TEMP              0 ****  ****    0 ROOT
