@<TRIPOS>MOLECULE
A1A
   41    42     1     0     0
SMALL
No Charge or Current Charge


@<TRIPOS>ATOM
      1 C10         42.7490   -14.0950   -25.1400 c6         1 A1A      -0.092900
      2 C13         41.2630   -16.8790   -24.2620 ca         1 A1A      -0.073300
      3 C15         40.6830   -18.2170   -26.2220 ca         1 A1A      -0.109000
      4 C17         41.7440   -19.2730   -24.3060 ca         1 A1A      -0.109000
      5 C01         45.3040   -16.6190   -28.6870 c3         1 A1A      -0.081600
      6 C02         46.0560   -15.7970   -27.6140 c3         1 A1A      -0.136700
      7 C03         47.5800   -15.7700   -27.8880 c3         1 A1A      -0.081600
      8 C04         45.7270   -16.3300   -26.1930 c          1 A1A       0.606100
      9 C07         44.5850   -16.0970   -23.9880 c6         1 A1A       0.094500
     10 C08         43.8170   -15.1010   -23.0860 c6         1 A1A      -0.092900
     11 C09         42.4900   -14.5910   -23.6980 c6         1 A1A      -0.047700
     12 C11         43.5300   -15.0990   -26.0250 c6         1 A1A       0.094500
     13 C12         41.2560   -15.5440   -23.5230 c3         1 A1A      -0.028100
     14 C14         40.7000   -16.9820   -25.5500 ca         1 A1A      -0.110500
     15 C16         41.2100   -19.3620   -25.6020 ca         1 A1A      -0.111000
     16 C18         41.7610   -18.0380   -23.6350 ca         1 A1A      -0.110500
     17 N06         44.7730   -15.6470   -25.3990 n          1 A1A      -0.405800
     18 O05         46.3110   -17.3150   -25.7540 o          1 A1A      -0.609100
     19 H102        43.3310   -13.1640   -25.0900 hc         1 A1A       0.046200
     20 H101        41.8010   -13.8290   -25.6270 hc         1 A1A       0.046200
     21 H151        40.2580   -18.2860   -27.2210 ha         1 A1A       0.112500
     22 H171        42.1420   -20.1610   -23.8200 ha         1 A1A       0.112500
     23 H013        44.2220   -16.5980   -28.5090 hc         1 A1A       0.040533
     24 H011        45.4900   -16.2130   -29.6890 hc         1 A1A       0.040533
     25 H012        45.6300   -17.6670   -28.6760 hc         1 A1A       0.040533
     26 H021        45.6890   -14.7690   -27.6990 hc         1 A1A       0.052700
     27 H033        48.0970   -15.1720   -27.1270 hc         1 A1A       0.040533
     28 H031        48.0030   -16.7820   -27.8740 hc         1 A1A       0.040533
     29 H032        47.7900   -15.3260   -28.8680 hc         1 A1A       0.040533
     30 H072        44.0710   -17.0650   -24.0000 h1         1 A1A       0.059200
     31 H071        45.5700   -16.2740   -23.5320 h1         1 A1A       0.059200
     32 H081        43.6340   -15.5550   -22.1020 hc         1 A1A       0.046200
     33 H082        44.4700   -14.2380   -22.9000 hc         1 A1A       0.046200
     34 H091        42.2050   -13.7050   -23.1130 hc         1 A1A       0.042700
     35 H111        43.7580   -14.5870   -26.9680 h1         1 A1A       0.059200
     36 H112        42.8840   -15.9440   -26.2890 h1         1 A1A       0.059200
     37 H122        40.3540   -14.9920   -23.8160 hc         1 A1A       0.045200
     38 H121        41.1170   -15.7370   -22.4520 hc         1 A1A       0.045200
     39 H141        40.2850   -16.1020   -26.0350 ha         1 A1A       0.109500
     40 H161        41.1960   -20.3180   -26.1220 ha         1 A1A       0.113000
     41 H181        42.1710   -17.9810   -22.6290 ha         1 A1A       0.109500
@<TRIPOS>BOND
     1     1    11 1   
     2     1    12 1   
     3     1    19 1   
     4     1    20 1   
     5     2    13 1   
     6     2    14 ar  
     7     2    16 ar  
     8     3    14 ar  
     9     3    15 ar  
    10     3    21 1   
    11     4    15 ar  
    12     4    16 ar  
    13     4    22 1   
    14     5     6 1   
    15     5    23 1   
    16     5    24 1   
    17     5    25 1   
    18     6     7 1   
    19     6     8 1   
    20     6    26 1   
    21     7    27 1   
    22     7    28 1   
    23     7    29 1   
    24     8    17 1   
    25     8    18 2   
    26     9    10 1   
    27     9    17 1   
    28     9    30 1   
    29     9    31 1   
    30    10    11 1   
    31    10    32 1   
    32    10    33 1   
    33    11    13 1   
    34    11    34 1   
    35    12    17 1   
    36    12    35 1   
    37    12    36 1   
    38    13    37 1   
    39    13    38 1   
    40    14    39 1   
    41    15    40 1   
    42    16    41 1   
@<TRIPOS>SUBSTRUCTURE
     1 A1A         1 TEMP              0 ****  ****    0 ROOT
