@<TRIPOS>MOLECULE
A1A
   23    23     1     0     0
SMALL
abcg2


@<TRIPOS>ATOM
      1 C10        -54.9310    27.1080    -6.6050 ca         1 A1A      -0.130000
      2 C01        -59.8990    21.7650   -11.3800 c3         1 A1A      -0.100100
      3 C02        -59.9100    22.7870   -10.2700 c3         1 A1A       0.185600
      4 C04        -58.3550    24.1800    -9.1660 c          1 A1A       0.649100
      5 C07        -56.3990    25.4100    -8.2910 ca         1 A1A       0.007000
      6 C08        -57.0570    26.3230    -7.4660 ca         1 A1A      -0.134000
      7 C09        -56.3160    27.1520    -6.6360 ca         1 A1A      -0.076000
      8 C11        -54.2950    26.2010    -7.4370 ca         1 A1A       0.149000
      9 C12        -55.0030    25.3570    -8.2710 ca         1 A1A      -0.166000
     10 N06        -57.0430    24.5460    -9.1740 ns         1 A1A      -0.142000
     11 O03        -58.5770    23.3000   -10.1370 os         1 A1A      -0.465100
     12 O05        -59.1990    24.5840    -8.4000 o          1 A1A      -0.522000
     13 CL13       -52.5640    26.1090    -7.4340 cl         1 A1A      -0.204000
     14 H101       -54.3660    27.7620    -5.9550 ha         1 A1A       0.132000
     15 H012       -60.9030    21.3590   -11.4980 hc         1 A1A       0.049367
     16 H013       -59.6030    22.2070   -12.3310 hc         1 A1A       0.049367
     17 H011       -59.2280    20.9360   -11.1550 hc         1 A1A       0.049367
     18 H021       -60.5990    23.6020   -10.5000 h1         1 A1A       0.052200
     19 H022       -60.2280    22.3320    -9.3290 h1         1 A1A       0.052200
     20 H081       -58.1320    26.4000    -7.4640 ha         1 A1A       0.150000
     21 H091       -56.8360    27.8560    -6.0010 ha         1 A1A       0.120000
     22 H121       -54.4770    24.6520    -8.9030 ha         1 A1A       0.127000
     23 H061       -56.4500    24.0640    -9.8350 hn         1 A1A       0.168000
@<TRIPOS>BOND
     1     1     7 ar  
     2     1     8 ar  
     3     1    14 1   
     4     2     3 1   
     5     2    15 1   
     6     2    16 1   
     7     2    17 1   
     8     3    11 1   
     9     3    18 1   
    10     3    19 1   
    11     4    10 1   
    12     4    11 1   
    13     4    12 2   
    14     5     6 ar  
    15     5     9 ar  
    16     5    10 1   
    17     6     7 ar  
    18     6    20 1   
    19     7    21 1   
    20     8     9 ar  
    21     8    13 1   
    22     9    22 1   
    23    10    23 1   
@<TRIPOS>SUBSTRUCTURE
     1 A1A         1 TEMP              0 ****  ****    0 ROOT
