@<TRIPOS>MOLECULE
A1A
   46    48     1     0     0
SMALL
abcg2


@<TRIPOS>ATOM
      1 N3          19.3000   -43.1470    -9.8830 nb         1 A1A      -0.643000
      2 C4          19.5670   -44.4290   -10.0940 ca         1 A1A       0.322900
      3 C5          20.8490   -44.8730   -10.4200 ca         1 A1A      -0.079000
      4 C6          21.8600   -43.9210   -10.5330 ca         1 A1A      -0.133000
      5 C8          20.4610   -47.3170   -10.3930 c          1 A1A       0.535100
      6 C13         21.7090   -51.1110    -7.7950 c6         1 A1A      -0.074400
      7 C15         22.0760   -48.7610    -8.5590 c6         1 A1A       0.092000
      8 C17         24.7360   -51.4030    -9.2400 cc         1 A1A      -0.161000
      9 C1          21.5820   -42.5800   -10.3220 ca         1 A1A      -0.099300
     10 C2          20.2700   -42.2540    -9.9890 ca         1 A1A       0.314900
     11 N7          21.1890   -46.2100   -10.6530 ns         1 A1A      -0.132000
     12 C9          21.1240   -48.6260   -10.8230 c          1 A1A       0.523100
     13 N10         21.9410   -49.2120    -9.9380 n          1 A1A      -0.392800
     14 C11         22.4490   -50.5690   -10.1880 c6         1 A1A       0.176000
     15 C12         21.7070   -51.5410    -9.2620 c6         1 A1A      -0.085400
     16 C14         21.2680   -49.6600    -7.6370 c6         1 A1A      -0.099400
     17 C16         23.9410   -50.6230   -10.0510 cd         1 A1A      -0.191300
     18 C18         26.0850   -51.1040    -9.5430 cc         1 A1A      -0.181000
     19 C19         26.0680   -50.1530   -10.5300 cd         1 A1A      -0.192000
     20 N20         24.7720   -49.8710   -10.8400 na         1 A1A       0.034000
     21 O22         19.3380   -47.3440    -9.9310 o          1 A1A      -0.548100
     22 O23         20.8400   -49.0530   -11.9310 o          1 A1A      -0.575100
     23 H1          18.7390   -45.1150    -9.9990 h4         1 A1A       0.053100
     24 H2          22.8700   -44.2300   -10.7820 ha         1 A1A       0.113000
     25 H4          22.7050   -51.2280    -7.3650 hc         1 A1A       0.047700
     26 H5          23.1350   -48.7970    -8.2930 h1         1 A1A       0.059700
     27 H6          21.7750   -47.7190    -8.4650 h1         1 A1A       0.059700
     28 H7          24.3880   -52.1210    -8.5160 ha         1 A1A       0.131000
     29 H8          23.5550   -49.2910   -12.4460 h1         1 A1A       0.050033
     30 H9          24.0750   -47.9620   -11.3980 h1         1 A1A       0.050033
     31 H10         25.2200   -48.7240   -12.5040 h1         1 A1A       0.050033
     32 H14         20.0010   -41.2180    -9.8020 h4         1 A1A       0.022100
     33 H15         22.1250   -46.3560   -11.0090 hn         1 A1A       0.157000
     34 H16         22.1850   -50.8180   -11.2180 h1         1 A1A       0.088700
     35 H17         20.6740   -51.5950    -9.6150 hc         1 A1A       0.057200
     36 H18         22.1240   -52.5430    -9.3750 hc         1 A1A       0.057200
     37 H19         21.3980   -49.3300    -6.6040 hc         1 A1A       0.057200
     38 H20         20.2060   -49.5540    -7.8780 hc         1 A1A       0.057200
     39 H21         26.9640   -51.5360    -9.0920 ha         1 A1A       0.134000
     40 H22         26.8770   -49.6560   -11.0430 h4         1 A1A       0.143000
     41 C24         22.6340   -41.5240   -10.4640 c3         1 A1A      -0.044800
     42 H3          21.0490   -51.7690    -7.2280 hc         1 A1A       0.047700
     43 C21         24.3770   -48.9100   -11.8440 c3         1 A1A       0.054900
     44 H11         22.6660   -41.1430   -11.4860 hc         1 A1A       0.046700
     45 H12         22.4350   -40.6770    -9.8070 hc         1 A1A       0.046700
     46 H13         23.6240   -41.9130   -10.2290 hc         1 A1A       0.046700
@<TRIPOS>BOND
     1     1     2 ar  
     2     1    10 ar  
     3     2     3 ar  
     4     2    23 1   
     5     3     4 ar  
     6     3    11 1   
     7     4     9 ar  
     8     4    24 1   
     9     5    11 1   
    10     5    12 1   
    11     5    21 2   
    12     6    15 1   
    13     6    16 1   
    14     6    25 1   
    15     6    42 1   
    16     7    13 1   
    17     7    16 1   
    18     7    26 1   
    19     7    27 1   
    20     8    17 2   
    21     8    18 1   
    22     8    28 1   
    23     9    10 ar  
    24     9    41 1   
    25    10    32 1   
    26    11    33 1   
    27    12    13 1   
    28    12    22 2   
    29    13    14 1   
    30    14    15 1   
    31    14    17 1   
    32    14    34 1   
    33    15    35 1   
    34    15    36 1   
    35    16    37 1   
    36    16    38 1   
    37    17    20 1   
    38    18    19 2   
    39    18    39 1   
    40    19    20 1   
    41    19    40 1   
    42    20    43 1   
    43    29    43 1   
    44    30    43 1   
    45    31    43 1   
    46    41    44 1   
    47    41    45 1   
    48    41    46 1   
@<TRIPOS>SUBSTRUCTURE
     1 A1A         1 TEMP              0 ****  ****    0 ROOT
