@<TRIPOS>MOLECULE
A1A
   41    42     1     0     0
SMALL
abcg2


@<TRIPOS>ATOM
      1 C10         43.0180   -14.4710   -25.4570 c6         1 A1A      -0.092900
      2 C13         41.0800   -16.7630   -24.0800 ca         1 A1A      -0.073300
      3 C15         40.1300   -18.2500   -25.7400 ca         1 A1A      -0.109000
      4 C17         41.0550   -19.1600   -23.7230 ca         1 A1A      -0.109000
      5 C01         45.8650   -16.3860   -28.6960 c3         1 A1A      -0.081600
      6 C02         46.1730   -15.3950   -27.5690 c3         1 A1A      -0.136700
      7 C03         47.5920   -14.8550   -27.6950 c3         1 A1A      -0.081600
      8 C04         45.9660   -16.0810   -26.2230 c          1 A1A       0.606100
      9 C07         44.4350   -16.7930   -24.4600 c6         1 A1A       0.094500
     10 C08         44.0050   -15.7060   -23.4800 c6         1 A1A      -0.092900
     11 C09         42.8400   -14.8350   -23.9760 c6         1 A1A      -0.047700
     12 C11         43.5080   -15.6160   -26.3360 c6         1 A1A       0.094500
     13 C12         41.4440   -15.3820   -23.6120 c3         1 A1A      -0.028100
     14 C14         40.4430   -16.9700   -25.3020 ca         1 A1A      -0.110500
     15 C16         40.4410   -19.3520   -24.9540 ca         1 A1A      -0.111000
     16 C18         41.3620   -17.8780   -23.2900 ca         1 A1A      -0.110500
     17 N06         44.7000   -16.2150   -25.7660 n          1 A1A      -0.405800
     18 O05         46.9230   -16.5390   -25.6100 o          1 A1A      -0.609100
     19 H102        43.7510   -13.6610   -25.5330 hc         1 A1A       0.046200
     20 H101        42.0840   -14.0740   -25.8650 hc         1 A1A       0.046200
     21 H151        39.6380   -18.3860   -26.6950 ha         1 A1A       0.112500
     22 H171        41.2890   -20.0100   -23.0950 ha         1 A1A       0.112500
     23 H013        44.8380   -16.7500   -28.6630 hc         1 A1A       0.040533
     24 H011        46.0180   -15.9130   -29.6660 hc         1 A1A       0.040533
     25 H012        46.5280   -17.2520   -28.6390 hc         1 A1A       0.040533
     26 H021        45.4930   -14.5460   -27.6570 hc         1 A1A       0.052700
     27 H033        47.8220   -14.1360   -26.9090 hc         1 A1A       0.040533
     28 H031        48.3340   -15.6520   -27.6520 hc         1 A1A       0.040533
     29 H032        47.7040   -14.3450   -28.6530 hc         1 A1A       0.040533
     30 H072        43.6570   -17.5500   -24.5780 h1         1 A1A       0.059200
     31 H071        45.3250   -17.2980   -24.0970 h1         1 A1A       0.059200
     32 H081        43.7540   -16.1620   -22.5190 hc         1 A1A       0.046200
     33 H082        44.8700   -15.0610   -23.2980 hc         1 A1A       0.046200
     34 H091        42.8960   -13.8930   -23.4220 hc         1 A1A       0.042700
     35 H111        43.6900   -15.2530   -27.3440 h1         1 A1A       0.059200
     36 H112        42.7490   -16.3960   -26.4250 h1         1 A1A       0.059200
     37 H122        40.7040   -14.6700   -23.9890 hc         1 A1A       0.045200
     38 H121        41.3650   -15.3540   -22.5220 hc         1 A1A       0.045200
     39 H141        40.1870   -16.1190   -25.9230 ha         1 A1A       0.109500
     40 H161        40.1980   -20.3510   -25.2940 ha         1 A1A       0.113000
     41 H181        41.8340   -17.7410   -22.3240 ha         1 A1A       0.109500
@<TRIPOS>BOND
     1     1    11 1   
     2     1    12 1   
     3     1    19 1   
     4     1    20 1   
     5     2    13 1   
     6     2    14 ar  
     7     2    16 ar  
     8     3    14 ar  
     9     3    15 ar  
    10     3    21 1   
    11     4    15 ar  
    12     4    16 ar  
    13     4    22 1   
    14     5     6 1   
    15     5    23 1   
    16     5    24 1   
    17     5    25 1   
    18     6     7 1   
    19     6     8 1   
    20     6    26 1   
    21     7    27 1   
    22     7    28 1   
    23     7    29 1   
    24     8    17 1   
    25     8    18 2   
    26     9    10 1   
    27     9    17 1   
    28     9    30 1   
    29     9    31 1   
    30    10    11 1   
    31    10    32 1   
    32    10    33 1   
    33    11    13 1   
    34    11    34 1   
    35    12    17 1   
    36    12    35 1   
    37    12    36 1   
    38    13    37 1   
    39    13    38 1   
    40    14    39 1   
    41    15    40 1   
    42    16    41 1   
@<TRIPOS>SUBSTRUCTURE
     1 A1A         1 TEMP              0 ****  ****    0 ROOT
