@<TRIPOS>MOLECULE
A1A
   49    51     1     0     0
SMALL
No Charge or Current Charge


@<TRIPOS>ATOM
      1 C4          23.2740   -49.3090    -8.4380 c6         1 A1A      -0.088400
      2 C5          21.7870   -49.4570    -8.8830 c6         1 A1A       0.162000
      3 C7          22.5180   -50.8200   -10.8450 c6         1 A1A       0.092000
      4 C10         20.4290   -47.4070   -10.6810 c          1 A1A       0.532100
      5 N12         21.0750   -46.2190   -11.0060 ns         1 A1A      -0.131000
      6 C13         20.7780   -44.8610   -10.6900 ca         1 A1A      -0.084000
      7 C17         21.3600   -42.5070   -10.8920 ca         1 A1A      -0.180600
      8 C22         20.9590   -50.5540    -8.1680 ca         1 A1A      -0.100300
      9 C24         20.6240   -52.2310    -6.4110 ca         1 A1A      -0.111500
     10 C26         18.8720   -51.8360    -8.0420 ca         1 A1A      -0.111500
     11 C1          24.7420   -49.6060   -11.2970 c3         1 A1A      -0.084100
     12 C2          24.0180   -50.7060   -10.4670 c6         1 A1A      -0.080700
     13 C3          24.1590   -50.4870    -8.9350 c6         1 A1A      -0.072400
     14 N6          21.7520   -49.6360   -10.3650 n          1 A1A      -0.382800
     15 O9          21.2590   -48.8550   -12.4760 o          1 A1A      -0.575100
     16 O11         19.3930   -47.4780   -10.0190 o          1 A1A      -0.552100
     17 C14         19.6740   -44.4600    -9.8990 ca         1 A1A       0.340900
     18 N15         19.4080   -43.1650    -9.6070 nb         1 A1A      -0.651000
     19 C16         20.2360   -42.2160   -10.0960 ca         1 A1A       0.336900
     20 C18         21.6310   -43.8610   -11.1910 ca         1 A1A      -0.083000
     21 C19         22.2530   -41.4140   -11.4120 c          1 A1A       0.622700
     22 N20         21.9590   -40.1320   -11.1040 nt         1 A1A      -0.600000
     23 O21         23.2320   -41.6440   -12.1030 o          1 A1A      -0.601100
     24 C23         21.4220   -51.2500    -7.0250 ca         1 A1A      -0.095500
     25 C25         19.3500   -52.5280    -6.9190 ca         1 A1A      -0.103000
     26 C27         19.6680   -50.8560    -8.6580 ca         1 A1A      -0.095500
     27 H1          23.3490   -49.1970    -7.3490 hc         1 A1A       0.050200
     28 H2          23.6690   -48.3690    -8.8470 hc         1 A1A       0.050200
     29 H3          21.3060   -48.5090    -8.6130 h1         1 A1A       0.068700
     30 H4          22.4190   -50.9440   -11.9330 h1         1 A1A       0.069700
     31 H5          22.0970   -51.7260   -10.3860 h1         1 A1A       0.069700
     32 H6          21.9080   -46.3400   -11.5700 hn         1 A1A       0.165000
     33 H7          20.9940   -52.7610    -5.5360 ha         1 A1A       0.115000
     34 H8          17.8820   -52.0580    -8.4360 ha         1 A1A       0.115000
     35 H9          25.8060   -49.5530   -11.0370 hc         1 A1A       0.035700
     36 H10         24.6770   -49.8190   -12.3710 hc         1 A1A       0.035700
     37 H11         24.3090   -48.6130   -11.1320 hc         1 A1A       0.035700
     38 H12         24.5120   -51.6520   -10.7280 hc         1 A1A       0.057700
     39 H13         23.8760   -51.4110    -8.4150 hc         1 A1A       0.048700
     40 H14         25.2100   -50.3030    -8.6730 hc         1 A1A       0.048700
     41 H15         18.9760   -45.1790    -9.4770 h4         1 A1A       0.056100
     42 H16         19.9760   -41.1920    -9.8320 h4         1 A1A       0.021100
     43 H17         22.4910   -44.1300   -11.8030 ha         1 A1A       0.140000
     44 H18         22.5570   -39.3980   -11.4520 hn         1 A1A       0.317000
     45 H19         21.1570   -39.9100   -10.5350 hn         1 A1A       0.317000
     46 H20         22.3970   -51.0460    -6.5930 ha         1 A1A       0.119000
     47 H21         18.7340   -53.2870    -6.4420 ha         1 A1A       0.114000
     48 H22         19.2740   -50.3280    -9.5230 ha         1 A1A       0.119000
     49 C8          21.1750   -48.6930   -11.2590 c          1 A1A       0.529100
@<TRIPOS>BOND
     1     1     2 1   
     2     1    13 1   
     3     1    27 1   
     4     1    28 1   
     5     2     8 1   
     6     2    14 1   
     7     2    29 1   
     8     3    12 1   
     9     3    14 1   
    10     3    30 1   
    11     3    31 1   
    12     4     5 1   
    13     4    16 2   
    14     4    49 1   
    15     5     6 1   
    16     5    32 1   
    17     6    17 ar  
    18     6    20 ar  
    19     7    19 ar  
    20     7    20 ar  
    21     7    21 1   
    22     8    24 ar  
    23     8    26 ar  
    24     9    24 ar  
    25     9    25 ar  
    26     9    33 1   
    27    10    25 ar  
    28    10    26 ar  
    29    10    34 1   
    30    11    12 1   
    31    11    35 1   
    32    11    36 1   
    33    11    37 1   
    34    12    13 1   
    35    12    38 1   
    36    13    39 1   
    37    13    40 1   
    38    14    49 1   
    39    15    49 2   
    40    17    18 ar  
    41    17    41 1   
    42    18    19 ar  
    43    19    42 1   
    44    20    43 1   
    45    21    22 1   
    46    21    23 2   
    47    22    44 1   
    48    22    45 1   
    49    24    46 1   
    50    25    47 1   
    51    26    48 1   
@<TRIPOS>SUBSTRUCTURE
     1 A1A         1 TEMP              0 ****  ****    0 ROOT
