@<TRIPOS>MOLECULE
A1A
   50    53     1     0     0
SMALL
abcg2


@<TRIPOS>ATOM
      1 N1         -21.5920   -10.2280   -40.9960 ns         1 A1A      -0.164000
      2 N3         -23.7680    -9.0090   -38.3130 nb         1 A1A      -0.600000
      3 C4         -23.8180    -7.7370   -38.6470 ca         1 A1A       0.349300
      4 C5         -24.1020    -5.3370   -38.9650 cc         1 A1A       0.403200
      5 C6         -24.5030    -3.9110   -38.8550 c3         1 A1A      -0.121400
      6 C7         -23.0370    -9.7890   -39.0900 ca         1 A1A       0.347900
      7 C8         -21.6890    -7.4070   -41.7790 c3         1 A1A       0.211600
      8 C10        -22.4450    -7.7340   -43.0570 c3         1 A1A      -0.086100
      9 C13        -21.1900   -15.7940   -43.9950 ca         1 A1A       0.484500
     10 C15        -20.2650   -18.8290   -45.3090 cc         1 A1A       0.203400
     11 C17        -22.4080   -14.0940   -42.8510 ca         1 A1A      -0.062000
     12 F2         -24.3010   -16.0070   -44.6900 f          1 A1A      -0.103000
     13 F          -23.4710   -17.4250   -43.2920 f          1 A1A      -0.103000
     14 F1         -24.5400   -15.7050   -42.5860 f          1 A1A      -0.103000
     15 C16        -22.3950   -15.3370   -43.4690 ca         1 A1A      -0.196300
     16 N5         -21.0680   -17.0200   -44.6870 na         1 A1A       0.216100
     17 N7         -20.0940   -17.8640   -44.4270 nd         1 A1A      -0.468800
     18 C14        -21.3780   -18.5090   -46.0990 cc         1 A1A       0.203400
     19 N6         -21.8590   -17.3550   -45.6830 nd         1 A1A      -0.468800
     20 N4         -20.0690   -15.1150   -43.8860 nb         1 A1A      -0.634000
     21 C12        -20.0720   -13.9520   -43.2720 ca         1 A1A       0.322900
     22 C11        -21.2260   -13.3660   -42.7420 ca         1 A1A      -0.053000
     23 N          -21.1020   -12.1160   -42.1680 ns         1 A1A      -0.154000
     24 C          -22.0300   -11.4600   -41.3940 c          1 A1A       0.665100
     25 O          -23.1100   -11.9290   -41.0940 o          1 A1A      -0.595100
     26 C1         -22.3550    -9.3380   -40.2310 ca         1 A1A      -0.055000
     27 S          -24.6900    -6.4990   -37.7950 ss         1 A1A      -0.158500
     28 N2         -23.3370    -5.8110   -39.8840 nd         1 A1A      -0.546100
     29 C3         -23.1540    -7.1630   -39.7380 ca         1 A1A       0.070400
     30 C2         -22.3950    -7.9860   -40.5690 ca         1 A1A      -0.079300
     31 O1         -20.3660    -7.8900   -41.8970 os         1 A1A      -0.479000
     32 C9         -19.4840    -7.3760   -40.9200 c3         1 A1A       0.139900
     33 H1         -20.8090    -9.8070   -41.4820 hn         1 A1A       0.180000
     34 H3         -24.2440    -3.5040   -37.8780 hc         1 A1A       0.064700
     35 H4         -24.0010    -3.3290   -39.6240 hc         1 A1A       0.064700
     36 H2         -25.5810    -3.8020   -38.9800 hc         1 A1A       0.064700
     37 H5         -22.9720   -10.8290   -38.7970 h4         1 A1A       0.047100
     38 H6         -21.6660    -6.3170   -41.6620 h1         1 A1A       0.075700
     39 H12        -21.9460    -7.2850   -43.9160 hc         1 A1A       0.050700
     40 H10        -22.5250    -8.8080   -43.2250 hc         1 A1A       0.050700
     41 H11        -23.4530    -7.3240   -43.0020 hc         1 A1A       0.050700
     42 H15        -19.6150   -19.6870   -45.3450 h4         1 A1A       0.056100
     43 H16        -23.3240   -13.7010   -42.4420 ha         1 A1A       0.177000
     44 H14        -21.8200   -19.0460   -46.9220 h4         1 A1A       0.056100
     45 H13        -19.1170   -13.4400   -43.1990 h4         1 A1A       0.029100
     46 H          -20.1900   -11.6910   -42.2630 hn         1 A1A       0.161000
     47 H8         -18.4890    -7.7560   -41.1440 h1         1 A1A       0.037700
     48 H7         -19.4560    -6.2820   -40.9450 h1         1 A1A       0.037700
     49 H9         -19.7530    -7.6890   -39.9050 h1         1 A1A       0.037700
     50 C18        -23.6770   -16.1250   -43.5160 c3         1 A1A       0.373300
@<TRIPOS>BOND
     1     1    24 1   
     2     1    26 1   
     3     1    33 1   
     4     2     3 ar  
     5     2     6 ar  
     6     3    27 1   
     7     3    29 ar  
     8     4     5 1   
     9     4    27 1   
    10     4    28 2   
    11     5    34 1   
    12     5    35 1   
    13     5    36 1   
    14     6    26 ar  
    15     6    37 1   
    16     7     8 1   
    17     7    30 1   
    18     7    31 1   
    19     7    38 1   
    20     8    39 1   
    21     8    40 1   
    22     8    41 1   
    23     9    15 ar  
    24     9    16 1   
    25     9    20 ar  
    26    10    17 2   
    27    10    18 1   
    28    10    42 1   
    29    11    15 ar  
    30    11    22 ar  
    31    11    43 1   
    32    12    50 1   
    33    13    50 1   
    34    14    50 1   
    35    15    50 1   
    36    16    17 1   
    37    16    19 1   
    38    18    19 2   
    39    18    44 1   
    40    20    21 ar  
    41    21    22 ar  
    42    21    45 1   
    43    22    23 1   
    44    23    24 1   
    45    23    46 1   
    46    24    25 2   
    47    26    30 ar  
    48    28    29 1   
    49    29    30 ar  
    50    31    32 1   
    51    32    47 1   
    52    32    48 1   
    53    32    49 1   
@<TRIPOS>SUBSTRUCTURE
     1 A1A         1 TEMP              0 ****  ****    0 ROOT
