@<TRIPOS>MOLECULE
A1A
   59    63     1     0     0
SMALL
No Charge or Current Charge


@<TRIPOS>ATOM
      1 C01         -6.0900    25.2520   -30.3190 c3         1 A1A       0.146100
      2 C03         -6.6000    27.5480   -29.6770 c3         1 A1A       0.146100
      3 C04         -7.8030    26.5280   -31.6350 c5         1 A1A       0.157500
      4 C05         -9.0270    27.4640   -31.4420 c5         1 A1A      -0.097400
      5 C06         -9.8360    27.1840   -32.7360 c5         1 A1A       0.103000
      6 C10        -11.5770    25.4300   -34.4960 ca         1 A1A      -0.177600
      7 C11        -12.8550    24.8030   -34.5480 ca         1 A1A      -0.031000
      8 C12        -13.8650    25.2770   -35.4130 ca         1 A1A      -0.139000
      9 C13        -13.5580    26.3720   -36.2240 ca         1 A1A      -0.030200
     10 C16        -12.4020    28.0110   -37.1870 cc         1 A1A       0.421800
     11 C17        -11.3490    28.8930   -37.5490 cg         1 A1A      -0.111200
     12 C18        -10.3960    29.5890   -37.8610 ch         1 A1A      -0.083000
     13 C19         -9.2620    30.3730   -38.2310 ca         1 A1A       0.037000
     14 C20         -9.4820    31.5160   -39.0250 ca         1 A1A      -0.087000
     15 C21         -8.4120    32.3450   -39.3960 ca         1 A1A      -0.110000
     16 C22         -7.1110    32.0400   -38.9710 ca         1 A1A      -0.101000
     17 C23         -6.8830    30.9040   -38.1790 ca         1 A1A      -0.104000
     18 C24         -7.9430    30.0440   -37.7980 cp         1 A1A      -0.013000
     19 C25         -7.6370    28.8460   -36.9490 cp         1 A1A      -0.042000
     20 C26         -8.0600    27.5430   -37.3150 ca         1 A1A      -0.094500
     21 C27         -7.7510    26.4290   -36.5140 ca         1 A1A      -0.118500
     22 C28         -7.0000    26.5950   -35.3400 ca         1 A1A      -0.104000
     23 C29         -6.5560    27.8750   -34.9690 ca         1 A1A      -0.118500
     24 C30         -6.8730    28.9880   -35.7660 ca         1 A1A      -0.094500
     25 C31        -12.3360    26.9610   -36.2030 ca         1 A1A      -0.223900
     26 C32        -11.3050    26.5220   -35.3610 ca         1 A1A      -0.003000
     27 C33         -8.5250    25.2180   -32.0730 c5         1 A1A       0.096000
     28 N02         -7.1290    26.3130   -30.3090 n3         1 A1A      -0.702600
     29 N07         -9.5930    25.7380   -32.9560 n          1 A1A      -0.410800
     30 N14        -14.3180    27.0380   -37.1630 na         1 A1A      -0.050400
     31 N15        -13.6030    28.0750   -37.7820 nd         1 A1A      -0.492100
     32 O09        -10.4800    23.6660   -33.3420 o          1 A1A      -0.605100
     33 H1          -5.6650    25.1150   -29.3160 h1         1 A1A       0.032867
     34 H2          -6.5060    24.2860   -30.6320 h1         1 A1A       0.032867
     35 H3          -5.2730    25.5130   -31.0050 h1         1 A1A       0.032867
     36 H4          -6.1370    27.3210   -28.7070 h1         1 A1A       0.032867
     37 H5          -5.8410    28.0180   -30.3160 h1         1 A1A       0.032867
     38 H6          -7.3970    28.2780   -29.4930 h1         1 A1A       0.032867
     39 H7          -7.1170    26.8990   -32.4060 h1         1 A1A       0.027700
     40 H8          -8.7530    28.5210   -31.3570 hc         1 A1A       0.061700
     41 H9          -9.6070    27.1950   -30.5520 hc         1 A1A       0.061700
     42 H10         -9.4370    27.7770   -33.5690 h1         1 A1A       0.054200
     43 H11        -10.9010    27.4210   -32.6120 h1         1 A1A       0.054200
     44 H12        -13.0690    23.9520   -33.9030 ha         1 A1A       0.132000
     45 H13        -14.8440    24.8040   -35.4460 ha         1 A1A       0.125000
     46 H14        -10.4890    31.7660   -39.3530 ha         1 A1A       0.124000
     47 H15         -8.5920    33.2250   -40.0100 ha         1 A1A       0.117000
     48 H16         -6.2800    32.6820   -39.2550 ha         1 A1A       0.116000
     49 H17         -5.8670    30.6760   -37.8610 ha         1 A1A       0.118000
     50 H18         -8.6250    27.3950   -38.2320 ha         1 A1A       0.118500
     51 H19         -8.0890    25.4380   -36.8080 ha         1 A1A       0.115000
     52 H20         -6.7560    25.7330   -34.7230 ha         1 A1A       0.116000
     53 H21         -5.9630    28.0070   -34.0670 ha         1 A1A       0.115000
     54 H22         -6.5260    29.9740   -35.4630 ha         1 A1A       0.118500
     55 H23        -10.3270    26.9930   -35.4020 ha         1 A1A       0.136000
     56 H24         -8.9590    24.6870   -31.2150 h1         1 A1A       0.062200
     57 H25         -7.8490    24.5350   -32.6030 h1         1 A1A       0.062200
     58 H27        -15.2850    26.8330   -37.4110 hn         1 A1A       0.381000
     59 C08        -10.5360    24.8720   -33.5510 c          1 A1A       0.619700
@<TRIPOS>BOND
     1     1    28 1   
     2     1    33 1   
     3     1    34 1   
     4     1    35 1   
     5     2    28 1   
     6     2    36 1   
     7     2    37 1   
     8     2    38 1   
     9     3     4 1   
    10     3    27 1   
    11     3    28 1   
    12     3    39 1   
    13     4     5 1   
    14     4    40 1   
    15     4    41 1   
    16     5    29 1   
    17     5    42 1   
    18     5    43 1   
    19     6     7 ar  
    20     6    26 ar  
    21     6    59 1   
    22     7     8 ar  
    23     7    44 1   
    24     8     9 ar  
    25     8    45 1   
    26     9    25 ar  
    27     9    30 1   
    28    10    11 1   
    29    10    25 1   
    30    10    31 2   
    31    11    12 3   
    32    12    13 1   
    33    13    14 ar  
    34    13    18 ar  
    35    14    15 ar  
    36    14    46 1   
    37    15    16 ar  
    38    15    47 1   
    39    16    17 ar  
    40    16    48 1   
    41    17    18 ar  
    42    17    49 1   
    43    18    19 1   
    44    19    20 ar  
    45    19    24 ar  
    46    20    21 ar  
    47    20    50 1   
    48    21    22 ar  
    49    21    51 1   
    50    22    23 ar  
    51    22    52 1   
    52    23    24 ar  
    53    23    53 1   
    54    24    54 1   
    55    25    26 ar  
    56    26    55 1   
    57    27    29 1   
    58    27    56 1   
    59    27    57 1   
    60    29    59 1   
    61    30    31 1   
    62    30    58 1   
    63    32    59 2   
@<TRIPOS>SUBSTRUCTURE
     1 A1A         1 TEMP              0 ****  ****    0 ROOT
