@<TRIPOS>MOLECULE
A1A
   39    40     1     0     0
SMALL
No Charge or Current Charge


@<TRIPOS>ATOM
      1 C1         -33.5590    22.2070    22.4920 c3         1 A1A      -0.182100
      2 C2         -32.1670    22.2950    21.8700 c          1 A1A       0.608100
      3 C5         -29.7180    22.0410    22.6200 ca         1 A1A      -0.017000
      4 C6         -29.0550    22.2820    21.3980 ca         1 A1A      -0.153500
      5 C7         -27.6500    22.2480    21.3300 ca         1 A1A      -0.065000
      6 C8         -26.8830    21.9730    22.4790 ca         1 A1A      -0.104300
      7 C11        -25.3560    21.9530    22.3970 c3         1 A1A       0.227600
      8 C15        -24.5280    25.5400    23.8760 c6         1 A1A      -0.072400
      9 C16        -22.9910    25.5110    23.7080 c6         1 A1A      -0.075400
     10 C17        -22.4300    24.1020    24.0120 c6         1 A1A      -0.072400
     11 C18        -23.1080    23.0240    23.1300 c6         1 A1A      -0.072900
     12 C10        -28.9490    21.7640    23.7650 ca         1 A1A      -0.153500
     13 C13        -24.6600    23.0360    23.2900 c6         1 A1A      -0.094700
     14 C14        -25.2100    24.4650    22.9940 c6         1 A1A      -0.072900
     15 C9         -27.5450    21.7290    23.6980 ca         1 A1A      -0.065000
     16 N4         -31.1330    22.0590    22.7670 ns         1 A1A      -0.148000
     17 O12        -24.8970    20.6370    22.7230 oh         1 A1A      -0.656000
     18 O3         -32.0170    22.5550    20.6820 o          1 A1A      -0.583100
     19 H1         -33.6130    22.8930    23.3440 hc         1 A1A       0.062700
     20 H2         -34.3590    22.3970    21.7670 hc         1 A1A       0.062700
     21 H3         -33.6720    21.2290    22.9740 hc         1 A1A       0.062700
     22 H4         -29.6040    22.4990    20.4880 ha         1 A1A       0.127000
     23 H5         -27.1580    22.4400    20.3790 ha         1 A1A       0.116500
     24 H6         -25.0740    22.1760    21.3580 h1         1 A1A       0.031700
     25 H8         -24.7890    25.3730    24.9310 hc         1 A1A       0.039450
     26 H9         -22.5280    26.2500    24.3770 hc         1 A1A       0.038700
     27 H10        -22.7240    25.8040    22.6840 hc         1 A1A       0.038700
     28 H11        -22.5840    23.8630    25.0730 hc         1 A1A       0.039450
     29 H12        -21.3440    24.0910    23.8450 hc         1 A1A       0.039450
     30 H13        -22.6990    22.0410    23.4020 hc         1 A1A       0.039450
     31 H14        -22.8400    23.1920    22.0770 hc         1 A1A       0.039450
     32 H15        -29.4390    21.5730    24.7170 ha         1 A1A       0.127000
     33 H16        -24.9000    22.7850    24.3330 hc         1 A1A       0.059700
     34 H17        -25.0590    24.7100    21.9340 hc         1 A1A       0.039450
     35 H18        -26.2940    24.5030    23.1680 hc         1 A1A       0.039450
     36 H19        -26.9710    21.5100    24.5950 ha         1 A1A       0.116500
     37 H20        -31.4460    21.8610    23.7090 hn         1 A1A       0.149000
     38 H21        -23.9260    20.6390    22.5900 ho         1 A1A       0.442000
     39 H7         -24.9120    26.5350    23.6140 hc         1 A1A       0.039450
@<TRIPOS>BOND
     1     1     2 1   
     2     1    19 1   
     3     1    20 1   
     4     1    21 1   
     5     2    16 1   
     6     2    18 2   
     7     3     4 ar  
     8     3    12 ar  
     9     3    16 1   
    10     4     5 ar  
    11     4    22 1   
    12     5     6 ar  
    13     5    23 1   
    14     6     7 1   
    15     6    15 ar  
    16     7    13 1   
    17     7    17 1   
    18     7    24 1   
    19     8     9 1   
    20     8    14 1   
    21     8    25 1   
    22     8    39 1   
    23     9    10 1   
    24     9    26 1   
    25     9    27 1   
    26    10    11 1   
    27    10    28 1   
    28    10    29 1   
    29    11    13 1   
    30    11    30 1   
    31    11    31 1   
    32    12    15 ar  
    33    12    32 1   
    34    13    14 1   
    35    13    33 1   
    36    14    34 1   
    37    14    35 1   
    38    15    36 1   
    39    16    37 1   
    40    17    38 1   
@<TRIPOS>SUBSTRUCTURE
     1 A1A         1 TEMP              0 ****  ****    0 ROOT
