@<TRIPOS>MOLECULE
A1A
   52    55     1     0     0
SMALL
abcg2


@<TRIPOS>ATOM
      1 C4          23.4910   -48.7890    -8.7210 c6         1 A1A      -0.089400
      2 C5          21.9950   -48.8800    -9.0340 c6         1 A1A       0.163000
      3 C7          22.4810   -50.5350   -10.7840 c6         1 A1A       0.091000
      4 C10         20.6500   -47.1900   -10.9200 c          1 A1A       0.529100
      5 N12         21.3390   -46.0640   -11.1830 ns         1 A1A      -0.129000
      6 C13         20.9120   -44.7570   -10.8740 ca         1 A1A      -0.155000
      7 C20         21.8190   -43.8460   -10.3300 ca         1 A1A      -0.068000
      8 C21         21.1890   -49.8060    -8.1340 ca         1 A1A      -0.096300
      9 C22         19.9050   -50.2070    -8.5450 ca         1 A1A      -0.078000
     10 C24         19.5920   -51.4250    -6.5290 ca         1 A1A      -0.179000
     11 C26         20.2870   -52.2300    -4.3550 cc         1 A1A       0.384100
     12 C28         20.8630   -51.0320    -6.0920 ca         1 A1A       0.080400
     13 C1          24.7000   -49.5730   -11.5350 c3         1 A1A      -0.084100
     14 C2          23.9880   -50.4780   -10.5370 c6         1 A1A      -0.080700
     15 C3          24.2410   -50.0660    -9.0850 c6         1 A1A      -0.073400
     16 N6          21.8420   -49.2740   -10.4330 n          1 A1A      -0.387800
     17 O9          21.3620   -48.6930   -12.5820 o          1 A1A      -0.576100
     18 O11         19.5310   -47.2410   -10.4440 o          1 A1A      -0.566100
     19 C14         19.6230   -44.3120   -11.1050 ca         1 A1A       0.396900
     20 N15         19.2210   -43.0830   -10.8040 nb         1 A1A      -0.730000
     21 C16         20.0850   -42.2190   -10.2840 ca         1 A1A       0.588900
     22 N17         19.6310   -40.9530   -10.0450 nv         1 A1A      -1.049900
     23 C18         21.4360   -42.5560   -10.0380 ca         1 A1A      -0.172300
     24 C19         22.3930   -41.5450    -9.4870 c3         1 A1A      -0.037800
     25 C23         19.1020   -51.0110    -7.7630 ca         1 A1A      -0.072000
     26 S25         18.8600   -52.4250    -5.3230 ss         1 A1A       0.030800
     27 N27         21.2240   -51.5070    -4.8520 nd         1 A1A      -0.525100
     28 C29         21.6600   -50.2210    -6.9020 ca         1 A1A      -0.049000
     29 H1          23.6410   -48.5320    -7.6710 hc         1 A1A       0.049700
     30 H2          23.8870   -47.9440    -9.2890 hc         1 A1A       0.049700
     31 H3          21.5810   -47.8790    -8.9050 h1         1 A1A       0.073700
     32 H4          22.2610   -50.7680   -11.8240 h1         1 A1A       0.068200
     33 H5          22.0350   -51.3250   -10.1730 h1         1 A1A       0.068200
     34 H6          22.2810   -46.1590   -11.5350 hn         1 A1A       0.162000
     35 H7          22.8420   -44.1550   -10.1420 ha         1 A1A       0.113000
     36 H8          19.5230   -49.8770    -9.5010 ha         1 A1A       0.136000
     37 H9          20.3480   -52.7090    -3.3870 h5         1 A1A       0.058800
     38 H10         25.7760   -49.5750   -11.3550 hc         1 A1A       0.035700
     39 H11         24.5340   -49.9120   -12.5590 hc         1 A1A       0.035700
     40 H12         24.3620   -48.5370   -11.4740 hc         1 A1A       0.035700
     41 H13         24.3650   -51.4960   -10.6750 hc         1 A1A       0.057700
     42 H14         23.9310   -50.8800    -8.4240 hc         1 A1A       0.048700
     43 H15         25.3110   -49.9230    -8.9170 hc         1 A1A       0.048700
     44 H16         18.8800   -44.9600   -11.5520 h4         1 A1A       0.041100
     45 H17         18.6300   -40.8450   -10.0330 hn         1 A1A       0.470000
     46 H18         20.1040   -40.4030    -9.3480 hn         1 A1A       0.470000
     47 H19         22.4580   -40.6660   -10.1320 hc         1 A1A       0.042033
     48 H20         22.0880   -41.1930    -8.4980 hc         1 A1A       0.042033
     49 H21         23.3930   -41.9640    -9.3910 hc         1 A1A       0.042033
     50 H22         18.1190   -51.3040    -8.1060 ha         1 A1A       0.130000
     51 H23         22.6380   -49.9380    -6.5350 ha         1 A1A       0.131000
     52 C8          21.3520   -48.4650   -11.3830 c          1 A1A       0.526100
@<TRIPOS>BOND
     1     1     2 1   
     2     1    15 1   
     3     1    29 1   
     4     1    30 1   
     5     2     8 1   
     6     2    16 1   
     7     2    31 1   
     8     3    14 1   
     9     3    16 1   
    10     3    32 1   
    11     3    33 1   
    12     4     5 1   
    13     4    18 2   
    14     4    52 1   
    15     5     6 1   
    16     5    34 1   
    17     6     7 ar  
    18     6    19 ar  
    19     7    23 ar  
    20     7    35 1   
    21     8     9 ar  
    22     8    28 ar  
    23     9    25 ar  
    24     9    36 1   
    25    10    12 ar  
    26    10    25 ar  
    27    10    26 1   
    28    11    26 1   
    29    11    27 2   
    30    11    37 1   
    31    12    27 1   
    32    12    28 ar  
    33    13    14 1   
    34    13    38 1   
    35    13    39 1   
    36    13    40 1   
    37    14    15 1   
    38    14    41 1   
    39    15    42 1   
    40    15    43 1   
    41    16    52 1   
    42    17    52 2   
    43    19    20 ar  
    44    19    44 1   
    45    20    21 ar  
    46    21    22 1   
    47    21    23 ar  
    48    22    45 1   
    49    22    46 1   
    50    23    24 1   
    51    24    47 1   
    52    24    48 1   
    53    24    49 1   
    54    25    50 1   
    55    28    51 1   
@<TRIPOS>SUBSTRUCTURE
     1 A1A         1 TEMP              0 ****  ****    0 ROOT
