@<TRIPOS>MOLECULE
A1A
  103   108     1     0     0
SMALL
abcg2


@<TRIPOS>ATOM
      1 O1          -6.6970    36.0650     3.8570 o          1 A1A      -0.729000
      2 C7         -11.0120    40.6710    -0.5150 ca         1 A1A      -0.122000
      3 O2          -7.6720    32.3510    -4.4020 o          1 A1A      -0.729000
      4 C6          -9.8510    40.9900    -1.2130 ca         1 A1A      -0.060967
      5 C1         -10.9610    43.8860    -5.2420 c5         1 A1A      -0.104400
      6 N1          -8.4840    36.6370    -1.9980 n3         1 A1A      -0.720600
      7 C5          -9.6930    42.3320    -1.8700 c3         1 A1A      -0.003433
      8 C4         -10.3820    42.3820    -3.2430 c3         1 A1A      -0.187033
      9 C3         -10.8280    44.9200    -3.0760 c5         1 A1A       0.124133
     10 C2         -11.6340    45.2780    -5.2040 c5         1 A1A       0.129800
     11 C41         -9.8170    41.2840    -4.1710 c          1 A1A       0.719333
     12 O4         -10.6080    40.4050    -4.5710 o          1 A1A      -0.729000
     13 C          -10.2340    43.7580    -3.8870 c5         1 A1A      -0.061033
     14 N          -11.1250    45.9820    -4.0280 n7         1 A1A      -0.855733
     15 C11         -8.8740    40.0050    -1.3510 ca         1 A1A      -0.077000
     16 C10         -9.0490    38.7230    -0.8450 ca         1 A1A      -0.058300
     17 C9         -10.2250    38.4230    -0.1620 ca         1 A1A      -0.085333
     18 C8         -11.1960    39.3980     0.0110 ca         1 A1A      -0.137333
     19 C12         -8.0130    37.6550    -1.0690 c3         1 A1A       0.200767
     20 C27         -8.6220    37.1590    -3.3500 c3         1 A1A       0.200767
     21 C28         -9.4380    36.2430    -4.2210 ca         1 A1A      -0.058300
     22 C33         -8.8640    35.5720    -5.2920 ca         1 A1A      -0.077000
     23 C32         -9.5970    34.6900    -6.0850 ca         1 A1A      -0.060967
     24 C34         -8.9290    33.8980    -7.1730 c3         1 A1A      -0.003433
     25 C35         -8.4140    32.5390    -6.6690 c3         1 A1A      -0.187033
     26 C37         -7.8290    31.7140    -7.8140 c5         1 A1A      -0.061033
     27 C40         -8.8650    31.3120    -8.9020 c5         1 A1A       0.124133
     28 N3          -8.7800    29.8620    -9.1060 n7         1 A1A      -0.855733
     29 C39         -7.4740    29.4760    -8.5810 c5         1 A1A       0.129800
     30 C38         -7.2500    30.3660    -7.3640 c5         1 A1A      -0.104400
     31 C36         -7.3730    32.7520    -5.5450 c          1 A1A       0.719333
     32 O3          -6.3110    33.3180    -5.8800 o          1 A1A      -0.729000
     33 C31        -10.9460    34.5110    -5.7960 ca         1 A1A      -0.122000
     34 C30        -11.5400    35.1860    -4.7370 ca         1 A1A      -0.137333
     35 C29        -10.7890    36.0420    -3.9450 ca         1 A1A      -0.085333
     36 C14         -7.7960    34.6800    -0.6750 ca         1 A1A      -0.058300
     37 C19         -6.6920    34.3580     0.1060 ca         1 A1A      -0.077000
     38 C18         -6.8090    33.6000     1.2700 ca         1 A1A      -0.060967
     39 C17         -8.0770    33.1680     1.6490 ca         1 A1A      -0.122000
     40 C16         -9.1920    33.4920     0.8870 ca         1 A1A      -0.137333
     41 C15         -9.0560    34.2460    -0.2690 ca         1 A1A      -0.085333
     42 C20         -5.6050    33.2750     2.1100 c3         1 A1A      -0.003433
     43 C21         -5.6340    33.9560     3.4850 c3         1 A1A      -0.187033
     44 C22         -5.7270    35.4890     3.3250 c          1 A1A       0.719333
     45 O           -4.8040    36.0310     2.6800 o          1 A1A      -0.729000
     46 C23         -4.4040    33.5820     4.3100 c5         1 A1A      -0.061033
     47 C26         -4.2950    32.0680     4.6450 c5         1 A1A       0.124133
     48 N2          -4.0440    31.9330     6.0840 n7         1 A1A      -0.855733
     49 C25         -3.5730    33.2420     6.5230 c5         1 A1A       0.129800
     50 C24         -4.3510    34.2520     5.6880 c5         1 A1A      -0.104400
     51 H21        -11.7840    41.4220    -0.3880 ha         1 A1A       0.079333
     52 H14        -10.2640    43.7900    -6.0750 hc         1 A1A       0.059700
     53 H20         -8.6340    42.5700    -1.9930 hc         1 A1A       0.022367
     54 H19        -10.1170    43.1040    -1.2220 hc         1 A1A       0.022367
     55 H3         -11.4530    42.1980    -3.0900 hc         1 A1A       0.031700
     56 H18        -10.1680    45.2860    -2.2880 h1         1 A1A       0.037700
     57 H17        -11.7610    44.6000    -2.5940 h1         1 A1A       0.037700
     58 H16        -11.4550    45.8660    -6.1040 h1         1 A1A       0.026867
     59 H15        -12.7170    45.1640    -5.1070 h1         1 A1A       0.026867
     60 H           -9.1670    43.9570    -4.0320 hc         1 A1A       0.059033
     61 H2         -10.2500    46.4270    -4.2790 hn         1 A1A       0.381333
     62 H24         -7.9660    40.2390    -1.8970 ha         1 A1A       0.124667
     63 H23        -10.3770    37.4270     0.2360 ha         1 A1A       0.116333
     64 H22        -12.1040    39.1660     0.5540 ha         1 A1A       0.079000
     65 H26         -7.7930    37.1630    -0.1180 h1         1 A1A       0.056033
     66 H25         -7.0690    38.1120    -1.4090 h1         1 A1A       0.056033
     67 H42         -7.6430    37.3510    -3.8180 h1         1 A1A       0.056033
     68 H41         -9.1300    38.1240    -3.2910 h1         1 A1A       0.056033
     69 H46         -7.8090    35.7150    -5.5010 ha         1 A1A       0.124667
     70 H47         -8.0910    34.4640    -7.5870 hc         1 A1A       0.022367
     71 H48         -9.6390    33.7400    -7.9890 hc         1 A1A       0.022367
     72 H9          -9.2680    31.9830    -6.2610 hc         1 A1A       0.031700
     73 H12         -7.0320    32.2990    -8.2820 hc         1 A1A       0.059033
     74 H53         -8.6500    31.8330    -9.8390 h1         1 A1A       0.037700
     75 H54         -9.8860    31.5820    -8.6210 h1         1 A1A       0.037700
     76 H10         -9.4850    29.4210    -8.5280 hn         1 A1A       0.381333
     77 H51         -7.4480    28.4080    -8.3590 h1         1 A1A       0.026867
     78 H52         -6.7060    29.6700    -9.3370 h1         1 A1A       0.026867
     79 H49         -7.8160    29.9750    -6.5120 hc         1 A1A       0.059700
     80 H50         -6.2050    30.4380    -7.0610 hc         1 A1A       0.059700
     81 H45        -11.5380    33.8350    -6.4040 ha         1 A1A       0.079333
     82 H44        -12.5930    35.0410    -4.5270 ha         1 A1A       0.079000
     83 H43        -11.2510    36.5610    -3.1130 ha         1 A1A       0.116333
     84 H32         -5.7100    34.7040    -0.2000 ha         1 A1A       0.124667
     85 H31         -8.1950    32.5730     2.5480 ha         1 A1A       0.079333
     86 H30        -10.1720    33.1490     1.1940 ha         1 A1A       0.079000
     87 H29         -9.9280    34.4970    -0.8620 ha         1 A1A       0.116333
     88 H34         -5.5470    32.1900     2.2430 hc         1 A1A       0.022367
     89 H33         -4.6960    33.5720     1.5820 hc         1 A1A       0.022367
     90 H5          -6.5190    33.6010     4.0270 hc         1 A1A       0.031700
     91 H8          -3.5150    33.8840     3.7460 hc         1 A1A       0.059033
     92 H39         -5.2030    31.5220     4.3780 h1         1 A1A       0.037700
     93 H40         -3.4790    31.6130     4.0760 h1         1 A1A       0.037700
     94 H7          -4.9300    31.7560     6.5430 hn         1 A1A       0.381333
     95 H37         -2.5010    33.3310     6.3190 h1         1 A1A       0.026867
     96 H38         -3.7080    33.3600     7.5990 h1         1 A1A       0.026867
     97 H36         -3.8910    35.2410     5.6560 hc         1 A1A       0.059700
     98 H35         -5.3600    34.3720     6.0970 hc         1 A1A       0.059700
     99 O5          -8.6020    41.3720    -4.4480 o          1 A1A      -0.729000
    100 C13         -7.6390    35.4550    -1.9560 c3         1 A1A       0.200767
    101 H13        -11.7070    43.0970    -5.3630 hc         1 A1A       0.059700
    102 H28         -7.9200    34.8030    -2.7870 h1         1 A1A       0.056033
    103 H27         -6.5760    35.7050    -2.1110 h1         1 A1A       0.056033
@<TRIPOS>BOND
     1     1    44 1   
     2     2     4 ar  
     3     2    18 ar  
     4     2    51 1   
     5     3    31 1   
     6     4     7 1   
     7     4    15 ar  
     8     5    10 1   
     9     5    13 1   
    10     5    52 1   
    11     5   101 1   
    12     6    19 1   
    13     6    20 1   
    14     6   100 1   
    15     7     8 1   
    16     7    53 1   
    17     7    54 1   
    18     8    11 1   
    19     8    13 1   
    20     8    55 1   
    21     9    13 1   
    22     9    14 1   
    23     9    56 1   
    24     9    57 1   
    25    10    14 1   
    26    10    58 1   
    27    10    59 1   
    28    11    12 1   
    29    11    99 1   
    30    13    60 1   
    31    14    61 1   
    32    15    16 ar  
    33    15    62 1   
    34    16    17 ar  
    35    16    19 1   
    36    17    18 ar  
    37    17    63 1   
    38    18    64 1   
    39    19    65 1   
    40    19    66 1   
    41    20    21 1   
    42    20    67 1   
    43    20    68 1   
    44    21    22 ar  
    45    21    35 ar  
    46    22    23 ar  
    47    22    69 1   
    48    23    24 1   
    49    23    33 ar  
    50    24    25 1   
    51    24    70 1   
    52    24    71 1   
    53    25    26 1   
    54    25    31 1   
    55    25    72 1   
    56    26    27 1   
    57    26    30 1   
    58    26    73 1   
    59    27    28 1   
    60    27    74 1   
    61    27    75 1   
    62    28    29 1   
    63    28    76 1   
    64    29    30 1   
    65    29    77 1   
    66    29    78 1   
    67    30    79 1   
    68    30    80 1   
    69    31    32 1   
    70    33    34 ar  
    71    33    81 1   
    72    34    35 ar  
    73    34    82 1   
    74    35    83 1   
    75    36    37 ar  
    76    36    41 ar  
    77    36   100 1   
    78    37    38 ar  
    79    37    84 1   
    80    38    39 ar  
    81    38    42 1   
    82    39    40 ar  
    83    39    85 1   
    84    40    41 ar  
    85    40    86 1   
    86    41    87 1   
    87    42    43 1   
    88    42    88 1   
    89    42    89 1   
    90    43    44 1   
    91    43    46 1   
    92    43    90 1   
    93    44    45 1   
    94    46    47 1   
    95    46    50 1   
    96    46    91 1   
    97    47    48 1   
    98    47    92 1   
    99    47    93 1   
   100    48    49 1   
   101    48    94 1   
   102    49    50 1   
   103    49    95 1   
   104    49    96 1   
   105    50    97 1   
   106    50    98 1   
   107   100   102 1   
   108   100   103 1   
@<TRIPOS>SUBSTRUCTURE
     1 A1A         1 TEMP              0 ****  ****    0 ROOT
