@<TRIPOS>MOLECULE
A1A
   26    26     1     0     0
SMALL
No Charge or Current Charge


@<TRIPOS>ATOM
      1 C10         56.4140   -40.3110   -26.0920 ca         1 A1A      -0.101500
      2 C13         57.7430   -42.3190   -25.7430 ca         1 A1A      -0.101500
      3 C03         61.6800   -37.2890   -28.6640 cs         1 A1A       0.500400
      4 C06         60.3420   -39.3940   -28.2480 c3         1 A1A       0.114000
      5 C07         60.0980   -39.4520   -26.7270 c3         1 A1A      -0.058100
      6 C08         58.8360   -40.2320   -26.3840 ca         1 A1A      -0.081300
      7 C09         57.5810   -39.5910   -26.4030 ca         1 A1A      -0.096500
      8 C11         56.4960   -41.6730   -25.7620 ca         1 A1A       0.125000
      9 C14         58.9110   -41.6000   -26.0540 ca         1 A1A      -0.096500
     10 N01         63.4560   -35.5500   -29.1560 n8         1 A1A      -0.697200
     11 N02         62.9670   -36.9110   -28.9860 ns         1 A1A      -0.365300
     12 N05         61.5580   -38.6480   -28.5890 ns         1 A1A      -0.465900
     13 S04         60.4180   -36.2170   -28.4130 s          1 A1A      -0.627400
     14 Cl12        55.0350   -42.5730   -25.3740 cl         1 A1A      -0.215000
     15 H101        55.4470   -39.8140   -26.1080 ha         1 A1A       0.131000
     16 H131        57.8030   -43.3740   -25.4880 ha         1 A1A       0.131000
     17 H061        59.4800   -38.9280   -28.7430 h1         1 A1A       0.072200
     18 H062        60.4370   -40.4160   -28.6380 h1         1 A1A       0.072200
     19 H071        60.9700   -39.9070   -26.2420 hc         1 A1A       0.061200
     20 H072        60.0250   -38.4320   -26.3310 hc         1 A1A       0.061200
     21 H091        57.5110   -38.5360   -26.6600 ha         1 A1A       0.122500
     22 H141        59.8740   -42.1080   -26.0380 ha         1 A1A       0.122500
     23 H011        64.2200   -35.3420   -28.4980 hn         1 A1A       0.409000
     24 H012        63.8370   -35.4050   -30.1020 hn         1 A1A       0.409000
     25 H021        63.6360   -37.6700   -29.1150 hn         1 A1A       0.283500
     26 H051        62.3930   -39.1900   -28.7730 hn         1 A1A       0.293500
@<TRIPOS>BOND
     1     1     7 ar  
     2     1     8 ar  
     3     1    15 1   
     4     2     8 ar  
     5     2     9 ar  
     6     2    16 1   
     7     3    11 1   
     8     3    12 1   
     9     3    13 2   
    10     4     5 1   
    11     4    12 1   
    12     4    17 1   
    13     4    18 1   
    14     5     6 1   
    15     5    19 1   
    16     5    20 1   
    17     6     7 ar  
    18     6     9 ar  
    19     7    21 1   
    20     8    14 1   
    21     9    22 1   
    22    10    11 1   
    23    10    23 1   
    24    10    24 1   
    25    11    25 1   
    26    12    26 1   
@<TRIPOS>SUBSTRUCTURE
     1 A1A         1 TEMP              0 ****  ****    0 ROOT
