@<TRIPOS>MOLECULE
A1A
   34    37     1     0     0
SMALL
abcg2


@<TRIPOS>ATOM
      1 C13         44.4030   -15.2540   -30.2530 c5         1 A1A      -0.171400
      2 C17         43.7090   -16.4150   -26.1590 ca         1 A1A      -0.181300
      3 C01         40.3320   -15.2440   -24.8220 c3         1 A1A      -0.041800
      4 C02         41.8120   -15.4270   -24.9900 ca         1 A1A      -0.109300
      5 C03         42.7160   -14.7860   -24.1380 ca         1 A1A      -0.071000
      6 C04         44.0800   -14.9480   -24.2830 ca         1 A1A      -0.138000
      7 C05         44.5840   -15.7620   -25.2980 ca         1 A1A       0.142100
      8 C07         46.4560   -16.3880   -26.5860 c6         1 A1A       0.160600
      9 C08         45.7240   -17.6260   -27.0760 c5         1 A1A      -0.145700
     10 C09         46.1260   -17.9810   -28.5060 c5         1 A1A       0.105000
     11 C12         43.8040   -15.4280   -28.8630 c5         1 A1A       0.125800
     12 C14         45.5680   -16.2230   -30.2220 c          1 A1A       0.561000
     13 C16         44.2240   -17.3420   -27.2190 c5         1 A1A       0.201800
     14 C18         42.3360   -16.2380   -25.9840 ca         1 A1A      -0.061000
     15 N10         45.2600   -17.1300   -29.2810 n          1 A1A      -0.292200
     16 N11         44.0350   -16.8520   -28.6060 n3         1 A1A      -0.432600
     17 O06         45.9260   -15.9000   -25.3670 os         1 A1A      -0.336100
     18 O15         46.5780   -16.2180   -30.9050 o          1 A1A      -0.538000
     19 H132        44.7360   -14.2390   -30.4610 hc         1 A1A       0.083700
     20 H131        43.7020   -15.5480   -31.0400 hc         1 A1A       0.083700
     21 H011        40.0120   -15.4800   -23.8060 hc         1 A1A       0.042367
     22 H012        40.0330   -14.2130   -25.0180 hc         1 A1A       0.042367
     23 H013        39.7720   -15.8840   -25.5030 hc         1 A1A       0.042367
     24 H031        42.3440   -14.1490   -23.3430 ha         1 A1A       0.116000
     25 H041        44.7670   -14.4470   -23.6120 ha         1 A1A       0.130000
     26 H072        47.5040   -16.6160   -26.3910 h1         1 A1A       0.060200
     27 H071        46.4270   -15.5930   -27.3410 h1         1 A1A       0.060200
     28 H081        45.8980   -18.4580   -26.3930 hc         1 A1A       0.087700
     29 H091        45.9380   -19.0360   -28.7130 h1         1 A1A       0.071200
     30 H092        47.1690   -17.7650   -28.7410 h1         1 A1A       0.071200
     31 H122        44.3230   -14.7740   -28.1520 h1         1 A1A       0.060200
     32 H121        42.7410   -15.2000   -28.8160 h1         1 A1A       0.060200
     33 H161        43.6810   -18.2880   -27.1390 h1         1 A1A       0.092700
     34 H181        41.6600   -16.7670   -26.6480 ha         1 A1A       0.118000
@<TRIPOS>BOND
     1     1    11 1   
     2     1    12 1   
     3     1    19 1   
     4     1    20 1   
     5     2     7 ar  
     6     2    13 1   
     7     2    14 ar  
     8     3     4 1   
     9     3    21 1   
    10     3    22 1   
    11     3    23 1   
    12     4     5 ar  
    13     4    14 ar  
    14     5     6 ar  
    15     5    24 1   
    16     6     7 ar  
    17     6    25 1   
    18     7    17 1   
    19     8     9 1   
    20     8    17 1   
    21     8    26 1   
    22     8    27 1   
    23     9    10 1   
    24     9    13 1   
    25     9    28 1   
    26    10    15 1   
    27    10    29 1   
    28    10    30 1   
    29    11    16 1   
    30    11    31 1   
    31    11    32 1   
    32    12    15 1   
    33    12    18 2   
    34    13    16 1   
    35    13    33 1   
    36    14    34 1   
    37    15    16 1   
@<TRIPOS>SUBSTRUCTURE
     1 A1A         1 TEMP              0 ****  ****    0 ROOT
