@<TRIPOS>MOLECULE
A1A
   33    34     1     0     0
SMALL
abcg2


@<TRIPOS>ATOM
      1 C10         22.3400   -22.6520   -24.7160 c6         1 A1A      -0.092400
      2 C13         22.9750   -25.3010   -25.1500 ca         1 A1A       0.021600
      3 C15         24.8820   -26.5950   -25.8270 ca         1 A1A      -0.100000
      4 C17         25.1310   -24.8410   -24.2050 ca         1 A1A      -0.091000
      5 C01         20.7150   -30.8940   -24.8190 c3         1 A1A      -0.078100
      6 C02         21.1970   -29.5190   -24.3950 c3         1 A1A      -0.162400
      7 C03         20.4810   -28.3890   -25.1000 c          1 A1A       0.610100
      8 C09         21.2260   -23.5480   -25.2430 c6         1 A1A       0.105000
      9 C11         23.1360   -23.3690   -23.6280 c6         1 A1A      -0.031100
     10 C12         23.7770   -24.5460   -24.2930 ca         1 A1A      -0.093300
     11 C14         23.5320   -26.3010   -25.9430 ca         1 A1A      -0.126000
     12 C16         25.6820   -25.8730   -24.9510 ca         1 A1A      -0.112000
     13 N05         21.0080   -27.1520   -24.7710 ns         1 A1A      -0.449500
     14 N08         21.5950   -24.9730   -25.2100 n          1 A1A      -0.272000
     15 O04         19.5690   -28.5520   -25.8720 o          1 A1A      -0.500100
     16 S07         19.0430   -25.5430   -25.5990 s          1 A1A      -0.528400
     17 H101        23.0200   -22.3610   -25.5200 hc         1 A1A       0.057700
     18 H102        21.8840   -21.7360   -24.3390 hc         1 A1A       0.057700
     19 H151        25.3100   -27.3800   -26.4370 ha         1 A1A       0.121000
     20 H171        25.7580   -24.2500   -23.5490 ha         1 A1A       0.119000
     21 H011        21.2670   -31.6610   -24.2790 hc         1 A1A       0.046367
     22 H012        19.6560   -31.0340   -24.6050 hc         1 A1A       0.046367
     23 H013        20.8690   -31.0620   -25.8840 hc         1 A1A       0.046367
     24 H022        22.2710   -29.4180   -24.5770 hc         1 A1A       0.059200
     25 H021        21.0690   -29.3810   -23.3170 hc         1 A1A       0.059200
     26 H092        20.9430   -23.2680   -26.2590 h1         1 A1A       0.074200
     27 H091        20.3400   -23.4360   -24.6200 h1         1 A1A       0.074200
     28 H111        23.8900   -22.7150   -23.1910 hc         1 A1A       0.058700
     29 H112        22.4700   -23.6820   -22.8180 hc         1 A1A       0.058700
     30 H141        22.9200   -26.8470   -26.6490 ha         1 A1A       0.131000
     31 H161        26.7360   -26.1010   -24.8650 ha         1 A1A       0.120000
     32 H051        21.8420   -27.1840   -24.1990 hn         1 A1A       0.316500
     33 C06         20.6130   -25.9030   -25.2030 cs         1 A1A       0.453400
@<TRIPOS>BOND
     1     1     8 1   
     2     1     9 1   
     3     1    17 1   
     4     1    18 1   
     5     2    10 ar  
     6     2    11 ar  
     7     2    14 1   
     8     3    11 ar  
     9     3    12 ar  
    10     3    19 1   
    11     4    10 ar  
    12     4    12 ar  
    13     4    20 1   
    14     5     6 1   
    15     5    21 1   
    16     5    22 1   
    17     5    23 1   
    18     6     7 1   
    19     6    24 1   
    20     6    25 1   
    21     7    13 1   
    22     7    15 2   
    23     8    14 1   
    24     8    26 1   
    25     8    27 1   
    26     9    10 1   
    27     9    28 1   
    28     9    29 1   
    29    11    30 1   
    30    12    31 1   
    31    13    32 1   
    32    13    33 1   
    33    14    33 1   
    34    16    33 2   
@<TRIPOS>SUBSTRUCTURE
     1 A1A         1 TEMP              0 ****  ****    0 ROOT
