@<TRIPOS>MOLECULE
A1A
   27    28     1     0     0
SMALL
No Charge or Current Charge


@<TRIPOS>ATOM
      1 C10         31.8720   -11.7700    -4.8420 ca         1 A1A      -0.085000
      2 C13         29.9760    -9.9070    -3.9670 ca         1 A1A      -0.139000
      3 C01         27.7550    -9.8410    -1.2930 c3         1 A1A      -0.366100
      4 C06         28.2790   -13.2200    -2.9090 c6         1 A1A       0.228800
      5 C07         29.6020   -14.0000    -2.8190 c6         1 A1A      -0.084400
      6 C08         30.4810   -13.7160    -4.0450 c6         1 A1A      -0.026100
      7 C09         30.6880   -12.2130    -4.2210 ca         1 A1A      -0.105300
      8 C11         32.1100   -10.4020    -5.0210 ca         1 A1A      -0.125000
      9 C12         31.1620    -9.4710    -4.5820 ca         1 A1A      -0.080000
     10 C14         29.7070   -11.2850    -3.7700 ca         1 A1A       0.313000
     11 N05         28.5050   -11.7690    -3.1630 nh         1 A1A      -0.801300
     12 O03         26.9080    -9.8400    -3.8070 o          1 A1A      -0.531000
     13 O04         26.0800   -11.6480    -2.2390 o          1 A1A      -0.531000
     14 S02         27.1590   -10.7670    -2.7000 s6         1 A1A       1.231100
     15 H101        32.6110   -12.4900    -5.1860 ha         1 A1A       0.113000
     16 H131        29.2780    -9.1410    -3.6580 ha         1 A1A       0.115000
     17 H013        28.0210   -10.5680    -0.5190 h1         1 A1A       0.102033
     18 H011        28.6260    -9.2560    -1.5950 h1         1 A1A       0.102033
     19 H012        26.9380    -9.1930    -0.9610 h1         1 A1A       0.102033
     20 H062        27.7480   -13.3870    -1.9600 h1         1 A1A       0.055700
     21 H061        27.6630   -13.6470    -3.7140 h1         1 A1A       0.055700
     22 H072        29.4000   -15.0760    -2.7350 hc         1 A1A       0.053700
     23 H071        30.1380   -13.7060    -1.9060 hc         1 A1A       0.053700
     24 H082        30.0090   -14.1290    -4.9470 hc         1 A1A       0.056700
     25 H081        31.4460   -14.2290    -3.9310 hc         1 A1A       0.056700
     26 H111        33.0270   -10.0650    -5.5000 ha         1 A1A       0.118000
     27 H121        31.3420    -8.4070    -4.7220 ha         1 A1A       0.117000
@<TRIPOS>BOND
     1     1     7 ar  
     2     1     8 ar  
     3     1    15 1   
     4     2     9 ar  
     5     2    10 ar  
     6     2    16 1   
     7     3    14 1   
     8     3    17 1   
     9     3    18 1   
    10     3    19 1   
    11     4     5 1   
    12     4    11 1   
    13     4    20 1   
    14     4    21 1   
    15     5     6 1   
    16     5    22 1   
    17     5    23 1   
    18     6     7 1   
    19     6    24 1   
    20     6    25 1   
    21     7    10 ar  
    22     8     9 ar  
    23     8    26 1   
    24     9    27 1   
    25    10    11 1   
    26    11    14 1   
    27    12    14 2   
    28    13    14 2   
@<TRIPOS>SUBSTRUCTURE
     1 A1A         1 TEMP              0 ****  ****    0 ROOT
