@<TRIPOS>MOLECULE
A1A
   63    66     1     0     0
SMALL
No Charge or Current Charge


@<TRIPOS>ATOM
      1 C01         29.9630    15.2290    27.6270 c3         1 A1A      -0.027800
      2 C02         29.0510    14.6380    26.5770 cc         1 A1A      -0.143300
      3 C03         27.7250    14.2950    26.6590 cd         1 A1A      -0.168300
      4 C04         27.3670    13.7360    25.3810 cd         1 A1A       0.217500
      5 C05         26.0420    13.1480    24.9230 c          1 A1A       0.527600
      6 C07         23.6950    12.5300    25.6790 c3         1 A1A      -0.047000
      7 C08         22.8640    12.4880    26.9950 c          1 A1A       0.720000
      8 C15         26.8580    14.5190    27.8900 c3         1 A1A       0.012900
      9 C16         25.8170    15.6550    27.7260 c3         1 A1A       0.141600
     10 C18         25.7900    17.8850    26.6790 ca         1 A1A       0.130100
     11 C19         26.4540    18.7480    25.7520 cp         1 A1A       0.329500
     12 C20         27.9020    18.5810    25.3900 cp         1 A1A      -0.027500
     13 C21         28.3450    18.6060    24.0460 ca         1 A1A      -0.189000
     14 C22         29.7120    18.4480    23.7440 ca         1 A1A       0.601900
     15 C24         29.3810    18.9630    21.2890 c6         1 A1A       0.178800
     16 C25         30.2330    19.3600    20.0380 c6         1 A1A       0.138300
     17 C27         32.0420    17.8650    20.7340 c6         1 A1A       0.138300
     18 C28         31.2390    17.4310    22.0050 c6         1 A1A       0.178800
     19 C30         30.2480    18.2770    25.9810 ca         1 A1A       0.361900
     20 C31         28.9070    18.4120    26.3670 ca         1 A1A      -0.188000
     21 C33         24.4910    19.9610    25.4060 ca         1 A1A       0.278900
     22 C34         23.7750    19.1700    26.3210 ca         1 A1A      -0.107000
     23 C35         24.4260    18.1040    26.9690 ca         1 A1A      -0.137000
     24 N06         25.0690    13.0340    25.8970 ns         1 A1A      -0.469900
     25 N12         28.3980    13.7680    24.5410 nc         1 A1A      -0.481800
     26 N13         29.4170    14.3170    25.2760 na         1 A1A       0.127800
     27 N23         30.2110    18.4440    22.4250 nh         1 A1A      -0.779300
     28 N26         31.1630    18.2790    19.6030 n7         1 A1A      -0.846400
     29 N29         30.6500    18.2930    24.6940 nb         1 A1A      -0.767000
     30 N32         25.7960    19.7550    25.1190 nb         1 A1A      -0.648000
     31 O09         23.1640    13.2550    27.9020 o          1 A1A      -0.733000
     32 O10         21.9730    11.6560    27.0850 o          1 A1A      -0.733000
     33 O11         25.8180    12.7690    23.7760 o          1 A1A      -0.587100
     34 O17         26.4910    16.8180    27.2130 os         1 A1A      -0.343100
     35 H012        30.2060    14.4800    28.3890 hc         1 A1A       0.046033
     36 H013        30.9060    15.5880    27.2000 hc         1 A1A       0.046033
     37 H011        29.4830    16.0750    28.1310 hc         1 A1A       0.046033
     38 H072        23.1800    13.1860    24.9660 h1         1 A1A       0.032700
     39 H071        23.7470    11.5170    25.2600 h1         1 A1A       0.032700
     40 H141        30.7140    14.2000    23.6050 h1         1 A1A       0.049033
     41 H143        31.0460    15.5410    24.7360 h1         1 A1A       0.049033
     42 H142        31.4730    13.8660    25.1900 h1         1 A1A       0.049033
     43 H152        26.3500    13.5930    28.1830 hc         1 A1A       0.043200
     44 H151        27.4880    14.7700    28.7510 hc         1 A1A       0.043200
     45 H161        25.0330    15.3390    27.0280 h1         1 A1A       0.073700
     46 H162        25.3450    15.8670    28.6940 h1         1 A1A       0.073700
     47 H211        27.6180    18.7250    23.2510 ha         1 A1A       0.136000
     48 H251        29.5590    19.6260    19.2110 h1         1 A1A       0.058200
     49 H252        30.8160    20.2610    20.2820 h1         1 A1A       0.058200
     50 H271        32.6910    17.0360    20.4160 h1         1 A1A       0.058200
     51 H272        32.7000    18.7040    21.0060 h1         1 A1A       0.058200
     52 H282        30.7410    16.4720    21.7960 h1         1 A1A       0.050450
     53 H281        31.9680    17.2420    22.8060 h1         1 A1A       0.050450
     54 H301        31.0290    18.1520    26.7290 h4         1 A1A       0.003100
     55 H311        28.6540    18.3970    27.4230 ha         1 A1A       0.126000
     56 H331        24.0050    20.7850    24.8850 h4         1 A1A       0.010100
     57 H341        22.7260    19.3780    26.5130 ha         1 A1A       0.125000
     58 H351        23.8780    17.4790    27.6680 ha         1 A1A       0.159000
     59 H061        25.3140    13.3270    26.8340 hn         1 A1A       0.289500
     60 H262        30.5990    17.4660    19.3250 hn         1 A1A       0.400000
     61 C14         30.7440    14.4910    24.6620 c3         1 A1A       0.072900
     62 H242        28.6460    18.2010    20.9890 h1         1 A1A       0.050450
     63 H241        28.8170    19.8540    21.6050 h1         1 A1A       0.050450
@<TRIPOS>BOND
     1     1     2 1   
     2     1    35 1   
     3     1    36 1   
     4     1    37 1   
     5     2     3 2   
     6     2    26 1   
     7     3     4 1   
     8     3     8 1   
     9     4     5 1   
    10     4    25 2   
    11     5    24 1   
    12     5    33 2   
    13     6     7 1   
    14     6    24 1   
    15     6    38 1   
    16     6    39 1   
    17     7    31 1   
    18     7    32 1   
    19     8     9 1   
    20     8    43 1   
    21     8    44 1   
    22     9    34 1   
    23     9    45 1   
    24     9    46 1   
    25    10    11 ar  
    26    10    23 ar  
    27    10    34 1   
    28    11    12 1   
    29    11    30 ar  
    30    12    13 ar  
    31    12    20 ar  
    32    13    14 ar  
    33    13    47 1   
    34    14    27 1   
    35    14    29 ar  
    36    15    16 1   
    37    15    27 1   
    38    15    62 1   
    39    15    63 1   
    40    16    28 1   
    41    16    48 1   
    42    16    49 1   
    43    17    18 1   
    44    17    28 1   
    45    17    50 1   
    46    17    51 1   
    47    18    27 1   
    48    18    52 1   
    49    18    53 1   
    50    19    20 ar  
    51    19    29 ar  
    52    19    54 1   
    53    20    55 1   
    54    21    22 ar  
    55    21    30 ar  
    56    21    56 1   
    57    22    23 ar  
    58    22    57 1   
    59    23    58 1   
    60    24    59 1   
    61    25    26 1   
    62    26    61 1   
    63    28    60 1   
    64    40    61 1   
    65    41    61 1   
    66    42    61 1   
@<TRIPOS>SUBSTRUCTURE
     1 A1A         1 TEMP              0 ****  ****    0 ROOT
