@<TRIPOS>MOLECULE
A1A
   46    48     1     0     0
SMALL
No Charge or Current Charge


@<TRIPOS>ATOM
      1 C04          6.2360    35.6460    15.1680 ce         1 A1A       0.037600
      2 C03          5.2820    36.5010    14.6120 cd         1 A1A      -0.054000
      3 C02          5.4780    37.9250    14.7380 cd         1 A1A      -0.090200
      4 C01          6.6650    38.5200    15.4790 c3         1 A1A       0.287800
      5 C05          6.8450    33.6200    16.2790 cf         1 A1A       0.391300
      6 C06          7.1330    33.7920    17.7740 c3         1 A1A      -0.112500
      7 C07          6.4890    34.9840    18.4440 cc         1 A1A      -0.125400
      8 C08          5.1450    35.0760    18.9410 ca         1 A1A      -0.098800
      9 C09          4.9460    36.3320    19.4670 ca         1 A1A       0.326500
     10 C14          7.7150    32.5830    15.5200 c          1 A1A       0.620700
     11 C13          4.1240    34.1170    18.9340 ca         1 A1A      -0.014000
     12 C12          2.8970    34.5130    19.5000 ca         1 A1A      -0.240000
     13 C11          2.7690    35.8160    20.0250 ca         1 A1A       0.299900
     14 C10          7.0630    36.2250    18.6890 cd         1 A1A      -0.121100
     15 C16          3.1590    36.9290    13.4260 cc         1 A1A      -0.113200
     16 C18          4.5490    38.8040    14.2070 cc         1 A1A      -0.070000
     17 N19          5.9500    34.3530    15.6450 ne         1 A1A      -0.593300
     18 O21         10.3480    38.4520    14.4040 o          1 A1A      -0.929500
     19 C15          4.0890    36.0330    13.9410 cd         1 A1A       0.148100
     20 C17          1.8940    36.5120    12.7080 c3         1 A1A      -0.019900
     21 N28          3.7770    36.7230    20.0130 nb         1 A1A      -0.726000
     22 N29          6.1090    37.0600    19.3280 na         1 A1A      -0.337400
     23 N30          3.4040    38.3070    13.5590 na         1 A1A      -0.689000
     24 O20          9.4710    37.7690    16.5620 o          1 A1A      -0.929500
     25 O22          7.8530    38.3450    14.7040 os         1 A1A      -0.579400
     26 O23          8.5410    31.9210    16.1430 o          1 A1A      -0.736000
     27 O24          7.5660    32.4220    14.3100 o          1 A1A      -0.736000
     28 O25          3.8670    34.7110    13.7570 oh         1 A1A      -0.472100
     29 O26          9.2890    40.0950    15.8410 o          1 A1A      -0.929500
     30 P27          9.2630    38.6740    15.3990 p5         1 A1A       1.286900
     31 H041         7.1690    36.0400    15.5850 h4         1 A1A       0.205000
     32 H011         6.4840    39.5890    15.6550 h1         1 A1A      -0.008800
     33 H012         6.7540    38.0390    16.4620 h1         1 A1A      -0.008800
     34 H062         6.8160    32.8820    18.2960 hc         1 A1A       0.079200
     35 H061         8.2170    33.8490    17.9270 hc         1 A1A       0.079200
     36 H131         4.2690    33.1250    18.5120 ha         1 A1A       0.166000
     37 H121         2.0560    33.8260    19.5330 ha         1 A1A       0.085000
     38 H111         1.8310    36.1450    20.4680 h4         1 A1A      -0.031900
     39 H3           8.0710    36.5730    18.4480 h4         1 A1A       0.331000
     40 H181         4.6480    39.8860    14.2720 h4         1 A1A       0.176000
     41 H171         1.2900    37.3770    12.4080 hc         1 A1A       0.012367
     42 H172         2.1280    35.9430    11.7990 hc         1 A1A       0.012367
     43 H173         1.2670    35.8820    13.3510 hc         1 A1A       0.012367
     44 H291         6.2400    38.0180    19.6290 hn         1 A1A       0.342000
     45 H301         2.7250    38.9690    13.1740 hn         1 A1A       0.452000
     46 H1           3.0180    34.6420    13.2800 ho         1 A1A       0.412000
@<TRIPOS>BOND
     1     1     2 2   
     2     1    17 1   
     3     1    31 1   
     4     2     3 1   
     5     2    19 1   
     6     3     4 1   
     7     3    16 2   
     8     4    25 1   
     9     4    32 1   
    10     4    33 1   
    11     5     6 1   
    12     5    10 1   
    13     5    17 2   
    14     6     7 1   
    15     6    34 1   
    16     6    35 1   
    17     7     8 1   
    18     7    14 2   
    19     8     9 ar  
    20     8    11 ar  
    21     9    21 ar  
    22     9    22 1   
    23    10    26 1   
    24    10    27 1   
    25    11    12 ar  
    26    11    36 1   
    27    12    13 ar  
    28    12    37 1   
    29    13    21 ar  
    30    13    38 1   
    31    14    22 1   
    32    14    39 1   
    33    15    19 2   
    34    15    20 1   
    35    15    23 1   
    36    16    23 1   
    37    16    40 1   
    38    18    30 1   
    39    19    28 1   
    40    20    41 1   
    41    20    42 1   
    42    20    43 1   
    43    22    44 1   
    44    23    45 1   
    45    24    30 1   
    46    25    30 1   
    47    28    46 1   
    48    29    30 1   
@<TRIPOS>SUBSTRUCTURE
     1 A1A         1 TEMP              0 ****  ****    0 ROOT
