@<TRIPOS>MOLECULE
A1A
   46    48     1     0     0
SMALL
abcg2


@<TRIPOS>ATOM
      1 C04          5.7490    35.9090    15.2530 ce         1 A1A       0.037600
      2 C03          5.1470    36.7200    14.3120 cd         1 A1A      -0.054000
      3 C02          5.4840    38.1350    14.2550 cd         1 A1A      -0.090200
      4 C01          6.5060    38.7500    15.1680 c3         1 A1A       0.287800
      5 C05          6.0430    33.8580    16.3180 cf         1 A1A       0.391300
      6 C06          7.0510    34.3720    17.3280 c3         1 A1A      -0.112500
      7 C07          6.4360    35.1600    18.4470 cc         1 A1A      -0.125400
      8 C08          5.4820    34.7150    19.4200 ca         1 A1A      -0.098800
      9 C09          5.1950    35.8210    20.2600 ca         1 A1A       0.326500
     10 C14          5.6680    32.3760    16.3670 c          1 A1A       0.620700
     11 C13          4.8320    33.5200    19.7210 ca         1 A1A      -0.014000
     12 C12          3.9560    33.5140    20.7940 ca         1 A1A      -0.240000
     13 C11          3.7550    34.6820    21.5370 ca         1 A1A       0.299900
     14 C10          6.6820    36.4740    18.7380 cd         1 A1A      -0.121100
     15 C16          3.6000    37.1870    12.4450 cc         1 A1A      -0.113200
     16 C18          4.8880    38.9500    13.3510 cc         1 A1A      -0.070000
     17 N19          5.4820    34.5830    15.4190 ne         1 A1A      -0.593300
     18 O21         10.2850    38.4180    14.9600 o          1 A1A      -0.929500
     19 C15          4.1520    36.3120    13.3340 cd         1 A1A       0.148100
     20 C17          2.5840    36.7820    11.4210 c3         1 A1A      -0.019900
     21 N28          4.3620    35.8340    21.2890 nb         1 A1A      -0.726000
     22 N29          5.9380    36.8700    19.8220 na         1 A1A      -0.337400
     23 N30          3.9730    38.5010    12.4680 na         1 A1A      -0.689000
     24 O20          8.9090    37.9120    17.0690 o          1 A1A      -0.929500
     25 O22          7.7950    38.3640    14.7860 os         1 A1A      -0.579400
     26 O23          6.2330    31.6920    17.2550 o          1 A1A      -0.736000
     27 O24          4.8400    31.9550    15.5370 o          1 A1A      -0.736000
     28 O25          3.7850    35.0080    13.3190 oh         1 A1A      -0.472100
     29 O26          8.8980    40.2790    16.0900 o          1 A1A      -0.929500
     30 P27          9.0890    38.7890    15.8230 p5         1 A1A       1.286900
     31 H041         6.4970    36.3790    15.8810 h4         1 A1A       0.205000
     32 H011         6.3880    39.8420    15.1280 h1         1 A1A      -0.008800
     33 H012         6.2820    38.4620    16.2070 h1         1 A1A      -0.008800
     34 H062         7.5950    33.5190    17.7350 hc         1 A1A       0.079200
     35 H061         7.7930    35.0090    16.8380 hc         1 A1A       0.079200
     36 H131         5.0160    32.6270    19.1370 ha         1 A1A       0.166000
     37 H121         3.4250    32.6130    21.0710 ha         1 A1A       0.085000
     38 H111         3.0670    34.6720    22.3760 h4         1 A1A      -0.031900
     39 H3           7.3630    37.1540    18.2330 h4         1 A1A       0.331000
     40 H181         5.1180    40.0050    13.2930 h4         1 A1A       0.176000
     41 H171         2.3080    37.6220    10.7860 hc         1 A1A       0.012367
     42 H172         2.9610    35.9980    10.7620 hc         1 A1A       0.012367
     43 H173         1.6640    36.4160    11.8830 hc         1 A1A       0.012367
     44 H291         5.9420    37.7910    20.2270 hn         1 A1A       0.342000
     45 H301         3.5580    39.1440    11.8150 hn         1 A1A       0.452000
     46 H1           3.1230    34.8500    12.6390 ho         1 A1A       0.412000
@<TRIPOS>BOND
     1     1     2 2   
     2     1    17 1   
     3     1    31 1   
     4     2     3 1   
     5     2    19 1   
     6     3     4 1   
     7     3    16 2   
     8     4    25 1   
     9     4    32 1   
    10     4    33 1   
    11     5     6 1   
    12     5    10 1   
    13     5    17 2   
    14     6     7 1   
    15     6    34 1   
    16     6    35 1   
    17     7     8 1   
    18     7    14 2   
    19     8     9 ar  
    20     8    11 ar  
    21     9    21 ar  
    22     9    22 1   
    23    10    26 1   
    24    10    27 1   
    25    11    12 ar  
    26    11    36 1   
    27    12    13 ar  
    28    12    37 1   
    29    13    21 ar  
    30    13    38 1   
    31    14    22 1   
    32    14    39 1   
    33    15    19 2   
    34    15    20 1   
    35    15    23 1   
    36    16    23 1   
    37    16    40 1   
    38    18    30 1   
    39    19    28 1   
    40    20    41 1   
    41    20    42 1   
    42    20    43 1   
    43    22    44 1   
    44    23    45 1   
    45    24    30 1   
    46    25    30 1   
    47    28    46 1   
    48    29    30 1   
@<TRIPOS>SUBSTRUCTURE
     1 A1A         1 TEMP              0 ****  ****    0 ROOT
