@<TRIPOS>MOLECULE
A1A
   76    81     1     0     0
SMALL
No Charge or Current Charge


@<TRIPOS>ATOM
      1 C12         17.8980    11.9810    22.8400 c6         1 A1A       0.138600
      2 C13         18.5430    12.5200    24.1400 c6         1 A1A       0.060500
      3 C15         22.8490    13.6580    26.6770 cc         1 A1A      -0.162300
      4 C16         22.2570    13.7730    28.0720 c3         1 A1A       0.007900
      5 C17         21.4650    15.0720    28.3380 c3         1 A1A       0.164600
      6 C21         20.5010    19.1860    29.2600 ca         1 A1A      -0.055000
      7 C22         21.2260    20.1960    28.6020 ca         1 A1A      -0.073000
      8 C23         20.8620    21.5440    28.7900 ca         1 A1A      -0.085000
      9 C24         21.5680    22.5640    28.1330 ca         1 A1A      -0.119000
     10 C25         22.6380    22.2400    27.2850 ca         1 A1A      -0.097000
     11 C26         23.0060    20.8970    27.0950 ca         1 A1A      -0.110000
     12 C02         24.1530    13.8910    26.3410 cd         1 A1A      -0.116300
     13 C06         22.1790    13.2730    25.4690 cc         1 A1A       0.204500
     14 C07         20.6800    12.9470    25.4160 c          1 A1A       0.544600
     15 C09         20.7420    12.6020    22.8350 c6         1 A1A       0.060500
     16 C10         19.9280    12.0930    21.6170 c6         1 A1A       0.138600
     17 C19         21.9280    17.4960    28.2470 ca         1 A1A       0.165100
     18 C20         20.8480    17.8390    29.0840 ca         1 A1A      -0.183000
     19 C27         22.3090    19.8590    27.7540 ca         1 A1A       0.016000
     20 C28         22.6710    18.4940    27.5690 cp         1 A1A      -0.104000
     21 C29         23.7800    18.0980    26.6560 cp         1 A1A       0.063000
     22 C30         23.5160    17.6160    25.3600 ca         1 A1A      -0.218000
     23 C31         24.5800    17.2720    24.5110 ca         1 A1A       0.607900
     24 C33         25.2060    17.3080    22.0510 c6         1 A1A       0.210300
     25 C34         24.3530    18.1800    21.0670 c6         1 A1A       0.125800
     26 C36         22.2910    17.0350    21.7860 c6         1 A1A       0.125800
     27 C37         23.1170    16.1380    22.7660 c6         1 A1A       0.210300
     28 C39         26.1330    17.8400    26.1210 ca         1 A1A       0.372900
     29 C40         25.1310    18.2040    27.0310 ca         1 A1A      -0.194000
     30 N03         24.2350    13.6230    24.9770 na         1 A1A       0.145800
     31 N05         23.0230    13.2460    24.4420 nd         1 A1A      -0.507800
     32 N08         20.0470    12.6010    24.1720 n          1 A1A      -0.403800
     33 N32         24.3860    16.8040    23.2000 nh         1 A1A      -0.780300
     34 N35         23.0950    17.5090    20.6210 n7         1 A1A      -0.865400
     35 N38         25.8680    17.3860    24.8780 nb         1 A1A      -0.754000
     36 O11         18.5600    12.5220    21.6880 os         1 A1A      -0.447000
     37 O14         19.9680    12.9780    26.4160 o          1 A1A      -0.595100
     38 O18         22.3270    16.1880    28.0580 os         1 A1A      -0.340100
     39 H122        16.8340    12.2520    22.8100 h1         1 A1A       0.053950
     40 H121        17.9680    10.8830    22.8140 h1         1 A1A       0.053950
     41 H131        18.1460    13.5280    24.3230 h1         1 A1A       0.063700
     42 H132        18.1950    11.8900    24.9720 h1         1 A1A       0.063700
     43 H161        21.6220    12.9090    28.2940 hc         1 A1A       0.062700
     44 H162        23.0630    13.7180    28.8130 hc         1 A1A       0.062700
     45 H172        20.5710    15.1130    27.7040 h1         1 A1A       0.037700
     46 H171        21.1480    15.0730    29.3890 h1         1 A1A       0.037700
     47 H231        20.0310    21.8030    29.4420 ha         1 A1A       0.113000
     48 H241        21.2840    23.6040    28.2790 ha         1 A1A       0.114000
     49 H251        23.1840    23.0300    26.7730 ha         1 A1A       0.112000
     50 H261        23.8360    20.6760    26.4300 ha         1 A1A       0.121000
     51 H091        21.0790    13.6250    22.6180 h1         1 A1A       0.063700
     52 H092        21.6300    11.9600    22.8900 h1         1 A1A       0.063700
     53 H102        20.3780    12.4640    20.6860 h1         1 A1A       0.053950
     54 H101        19.9550    10.9940    21.5870 h1         1 A1A       0.053950
     55 H201        20.2770    17.0800    29.6100 ha         1 A1A       0.122000
     56 H301        22.4900    17.5380    25.0250 ha         1 A1A       0.122000
     57 H332        26.0610    17.9100    22.3930 h1         1 A1A       0.065950
     58 H331        25.6280    16.4560    21.4990 h1         1 A1A       0.065950
     59 H342        24.0940    19.1220    21.5730 h1         1 A1A       0.039200
     60 H341        24.9630    18.4390    20.1890 h1         1 A1A       0.039200
     61 H362        21.9140    17.9070    22.3420 h1         1 A1A       0.039200
     62 H361        21.4170    16.4730    21.4270 h1         1 A1A       0.039200
     63 H372        22.4880    15.8610    23.6240 h1         1 A1A       0.065950
     64 H371        23.3580    15.1950    22.2540 h1         1 A1A       0.065950
     65 H391        27.1840    17.9180    26.3950 h4         1 A1A       0.013100
     66 H401        25.4020    18.5700    28.0170 ha         1 A1A       0.130000
     67 H351        22.5350    18.1720    20.0680 hn         1 A1A       0.414000
     68 C01         25.3070    14.3290    27.2120 c3         1 A1A      -0.034800
     69 C04         25.4400    13.6700    24.1340 c3         1 A1A       0.064900
     70 H211        19.6690    19.4450    29.9110 ha         1 A1A       0.116000
     71 H011        26.1430    14.7230    26.6230 hc         1 A1A       0.054700
     72 H013        24.9980    15.1200    27.9040 hc         1 A1A       0.054700
     73 H012        25.6860    13.4910    27.8090 hc         1 A1A       0.054700
     74 H042        25.1670    13.5270    23.0820 h1         1 A1A       0.061033
     75 H043        25.9320    14.6420    24.2460 h1         1 A1A       0.061033
     76 H041        26.1290    12.8750    24.4420 h1         1 A1A       0.061033
@<TRIPOS>BOND
     1     1     2 1   
     2     1    36 1   
     3     1    39 1   
     4     1    40 1   
     5     2    32 1   
     6     2    41 1   
     7     2    42 1   
     8     3     4 1   
     9     3    12 2   
    10     3    13 1   
    11     4     5 1   
    12     4    43 1   
    13     4    44 1   
    14     5    38 1   
    15     5    45 1   
    16     5    46 1   
    17     6     7 ar  
    18     6    18 ar  
    19     6    70 1   
    20     7     8 ar  
    21     7    19 ar  
    22     8     9 ar  
    23     8    47 1   
    24     9    10 ar  
    25     9    48 1   
    26    10    11 ar  
    27    10    49 1   
    28    11    19 ar  
    29    11    50 1   
    30    12    30 1   
    31    12    68 1   
    32    13    14 1   
    33    13    31 2   
    34    14    32 1   
    35    14    37 2   
    36    15    16 1   
    37    15    32 1   
    38    15    51 1   
    39    15    52 1   
    40    16    36 1   
    41    16    53 1   
    42    16    54 1   
    43    17    18 ar  
    44    17    20 ar  
    45    17    38 1   
    46    18    55 1   
    47    19    20 ar  
    48    20    21 1   
    49    21    22 ar  
    50    21    29 ar  
    51    22    23 ar  
    52    22    56 1   
    53    23    33 1   
    54    23    35 ar  
    55    24    25 1   
    56    24    33 1   
    57    24    57 1   
    58    24    58 1   
    59    25    34 1   
    60    25    59 1   
    61    25    60 1   
    62    26    27 1   
    63    26    34 1   
    64    26    61 1   
    65    26    62 1   
    66    27    33 1   
    67    27    63 1   
    68    27    64 1   
    69    28    29 ar  
    70    28    35 ar  
    71    28    65 1   
    72    29    66 1   
    73    30    31 1   
    74    30    69 1   
    75    34    67 1   
    76    68    71 1   
    77    68    72 1   
    78    68    73 1   
    79    69    74 1   
    80    69    75 1   
    81    69    76 1   
@<TRIPOS>SUBSTRUCTURE
     1 A1A         1 TEMP              0 ****  ****    0 ROOT
