@<TRIPOS>MOLECULE
A1A
   31    32     1     0     0
SMALL
No Charge or Current Charge


@<TRIPOS>ATOM
      1 C10        -50.6070    45.6240    -4.7890 c6         1 A1A       0.181300
      2 C15        -49.5100    45.8380    -3.7180 c6         1 A1A      -0.127400
      3 C03        -51.3770    47.8900    -7.6630 ca         1 A1A      -0.119300
      4 C04        -52.3650    48.1090    -8.6450 ca         1 A1A      -0.052000
      5 C05        -53.5820    47.4100    -8.5980 ca         1 A1A      -0.150000
      6 C06        -53.8240    46.4900    -7.5690 ca         1 A1A      -0.074000
      7 C07        -52.8480    46.2640    -6.5850 ca         1 A1A      -0.199000
      8 C08        -51.6140    46.9560    -6.6280 ca         1 A1A       0.144100
      9 C11        -50.3200    44.3150    -5.5760 c6         1 A1A      -0.127400
     10 C12        -48.8750    44.3130    -6.1260 c6         1 A1A       0.158600
     11 C14        -48.1000    45.7610    -4.3490 c6         1 A1A       0.158600
     12 O01        -49.2270    48.1230    -8.7690 oh         1 A1A      -0.664000
     13 O09        -50.6300    46.7690    -5.6720 os         1 A1A      -0.366100
     14 O13        -47.9420    44.5030    -5.0400 os         1 A1A      -0.452000
     15 H101       -51.5740    45.5530    -4.2720 h1         1 A1A       0.049700
     16 H151       -49.6490    46.8090    -3.2250 hc         1 A1A       0.060700
     17 H152       -49.6030    45.0740    -2.9350 hc         1 A1A       0.060700
     18 H021       -49.5500    48.6640    -6.7810 h1         1 A1A       0.030700
     19 H022       -50.2990    49.7220    -7.9760 h1         1 A1A       0.030700
     20 H041       -52.1860    48.8220    -9.4480 ha         1 A1A       0.133000
     21 H051       -54.3390    47.5850    -9.3600 ha         1 A1A       0.115000
     22 H061       -54.7700    45.9530    -7.5310 ha         1 A1A       0.110000
     23 H071       -53.0710    45.5520    -5.7970 ha         1 A1A       0.115000
     24 H111       -51.0320    44.1860    -6.4010 hc         1 A1A       0.060700
     25 H112       -50.4580    43.4510    -4.9130 hc         1 A1A       0.060700
     26 H121       -48.6620    43.3540    -6.6190 h1         1 A1A       0.049450
     27 H122       -48.7440    45.1160    -6.8660 h1         1 A1A       0.049450
     28 H141       -47.3320    45.8380    -3.5660 h1         1 A1A       0.049450
     29 H142       -47.9490    46.5880    -5.0580 h1         1 A1A       0.049450
     30 H011       -48.4060    48.6630    -8.7770 ho         1 A1A       0.445000
     31 C02        -50.0680    48.6720    -7.7480 c3         1 A1A       0.218900
@<TRIPOS>BOND
     1     1     2 1   
     2     1     9 1   
     3     1    13 1   
     4     1    15 1   
     5     2    11 1   
     6     2    16 1   
     7     2    17 1   
     8     3     4 ar  
     9     3     8 ar  
    10     3    31 1   
    11     4     5 ar  
    12     4    20 1   
    13     5     6 ar  
    14     5    21 1   
    15     6     7 ar  
    16     6    22 1   
    17     7     8 ar  
    18     7    23 1   
    19     8    13 1   
    20     9    10 1   
    21     9    24 1   
    22     9    25 1   
    23    10    14 1   
    24    10    26 1   
    25    10    27 1   
    26    11    14 1   
    27    11    28 1   
    28    11    29 1   
    29    12    30 1   
    30    12    31 1   
    31    18    31 1   
    32    19    31 1   
@<TRIPOS>SUBSTRUCTURE
     1 A1A         1 TEMP              0 ****  ****    0 ROOT
