@<TRIPOS>MOLECULE
A1A
   22    22     1     0     0
SMALL
abcg2


@<TRIPOS>ATOM
      1 C10         23.6310   -25.7510   -26.6880 c3         1 A1A       0.173800
      2 C02         22.3760   -23.1010   -24.8410 c3         1 A1A       0.291000
      3 C05         23.5830   -23.2990   -25.7550 c3         1 A1A       0.143500
      4 C07         25.0180   -24.8220   -24.3830 c3         1 A1A       0.167800
      5 C08         25.6470   -25.8870   -25.2760 c3         1 A1A       0.132800
      6 C11         23.2760   -24.2820   -26.9040 c3         1 A1A      -0.103400
      7 F01         21.8930   -24.2450   -24.3250 f          1 A1A      -0.118333
      8 F03         22.6400   -22.3000   -23.8040 f          1 A1A      -0.118333
      9 F04         21.3540   -22.5380   -25.5090 f          1 A1A      -0.118333
     10 N06         24.7780   -23.5190   -24.9720 n7         1 A1A      -0.880400
     11 N09         25.0690   -25.9340   -26.6050 n7         1 A1A      -0.891400
     12 H1          23.0810   -26.1830   -25.8420 h1         1 A1A       0.037200
     13 H101        23.2820   -26.2910   -27.5700 h1         1 A1A       0.037200
     14 H2          23.7180   -22.3150   -26.2150 h1         1 A1A       0.077700
     15 H072        24.0830   -25.1970   -23.9670 h1         1 A1A       0.058200
     16 H071        25.6790   -24.6930   -23.5210 h1         1 A1A       0.058200
     17 H082        25.5640   -26.8410   -24.7320 h1         1 A1A       0.033700
     18 H081        26.7190   -25.6880   -25.3780 h1         1 A1A       0.033700
     19 H3          23.8520   -23.9500   -27.7690 hc         1 A1A       0.059200
     20 H111        22.2270   -24.2010   -27.2010 hc         1 A1A       0.059200
     21 H4          25.5890   -23.1860   -25.4740 hn         1 A1A       0.444000
     22 H091        25.3350   -26.8000   -27.0510 hn         1 A1A       0.421000
@<TRIPOS>BOND
     1     1     6 1   
     2     1    11 1   
     3     1    12 1   
     4     1    13 1   
     5     2     3 1   
     6     2     7 1   
     7     2     8 1   
     8     2     9 1   
     9     3     6 1   
    10     3    10 1   
    11     3    14 1   
    12     4     5 1   
    13     4    10 1   
    14     4    15 1   
    15     4    16 1   
    16     5    11 1   
    17     5    17 1   
    18     5    18 1   
    19     6    19 1   
    20     6    20 1   
    21    10    21 1   
    22    11    22 1   
@<TRIPOS>SUBSTRUCTURE
     1 A1A         1 TEMP              0 ****  ****    0 ROOT
