@<TRIPOS>MOLECULE
A1A
   36    37     1     0     0
SMALL
abcg2


@<TRIPOS>ATOM
      1 C10        -53.1260    25.0850    -6.5910 ca         1 A1A      -0.109000
      2 C13        -53.5910    30.6050    -6.5280 c3         1 A1A       0.128300
      3 C15        -52.6970    32.7240    -7.5280 ca         1 A1A      -0.072000
      4 C17        -54.1660    34.2280    -8.6450 ca         1 A1A       0.340900
      5 C01        -55.8250    31.6410    -3.1570 c3         1 A1A       0.100300
      6 C03        -55.5380    30.1610    -5.0960 cs         1 A1A       0.473400
      7 C06        -55.1790    28.8330    -7.1220 c3         1 A1A       0.146300
      8 C07        -54.4340    27.5370    -6.9120 ca         1 A1A      -0.098300
      9 C08        -54.4870    26.5660    -7.9110 ca         1 A1A      -0.099500
     10 C09        -53.8430    25.3490    -7.7530 ca         1 A1A      -0.107500
     11 C11        -53.0640    26.0480    -5.5960 ca         1 A1A      -0.107500
     12 C12        -53.7170    27.2650    -5.7530 ca         1 A1A      -0.099500
     13 C14        -53.7920    31.9060    -7.2680 ca         1 A1A      -0.178300
     14 C16        -52.8830    33.9020    -8.2280 ca         1 A1A      -0.160000
     15 C19        -55.0320    32.3320    -7.7280 ca         1 A1A       0.347900
     16 N02        -55.1880    31.2400    -4.3890 ns         1 A1A      -0.447900
     17 N05        -54.8090    29.8890    -6.2060 n          1 A1A      -0.366800
     18 N18        -55.2210    33.4630    -8.4010 nb         1 A1A      -0.658000
     19 S04        -56.8260    29.1910    -4.5990 s          1 A1A      -0.665400
     20 H101       -52.6190    24.1370    -6.4670 ha         1 A1A       0.113000
     21 H132       -52.9780    29.9440    -7.1450 h1         1 A1A       0.067200
     22 H131       -52.9960    30.7710    -5.6260 h1         1 A1A       0.067200
     23 H151       -51.7090    32.4390    -7.1860 ha         1 A1A       0.119000
     24 H171       -54.3460    35.1440    -9.1970 h4         1 A1A       0.024100
     25 H012       -55.3070    32.5230    -2.7900 h1         1 A1A       0.054033
     26 H013       -56.8760    31.8860    -3.3060 h1         1 A1A       0.054033
     27 H011       -55.7610    30.8570    -2.4040 h1         1 A1A       0.054033
     28 H062       -55.0020    29.1920    -8.1400 h1         1 A1A       0.081200
     29 H061       -56.2510    28.6570    -7.0360 h1         1 A1A       0.081200
     30 H081       -55.0370    26.7680    -8.8230 ha         1 A1A       0.112000
     31 H091       -53.8960    24.6070    -8.5390 ha         1 A1A       0.112500
     32 H111       -52.5060    25.8550    -4.6880 ha         1 A1A       0.112500
     33 H121       -53.6550    28.0020    -4.9620 ha         1 A1A       0.112000
     34 H161       -52.0530    34.5600    -8.4470 ha         1 A1A       0.128000
     35 H191       -55.9190    31.7350    -7.5480 h4         1 A1A       0.031100
     36 H021       -54.4820    31.8660    -4.7410 hn         1 A1A       0.310500
@<TRIPOS>BOND
     1     1    10 ar  
     2     1    11 ar  
     3     1    20 1   
     4     2    13 1   
     5     2    17 1   
     6     2    21 1   
     7     2    22 1   
     8     3    13 ar  
     9     3    14 ar  
    10     3    23 1   
    11     4    14 ar  
    12     4    18 ar  
    13     4    24 1   
    14     5    16 1   
    15     5    25 1   
    16     5    26 1   
    17     5    27 1   
    18     6    16 1   
    19     6    17 1   
    20     6    19 2   
    21     7     8 1   
    22     7    17 1   
    23     7    28 1   
    24     7    29 1   
    25     8     9 ar  
    26     8    12 ar  
    27     9    10 ar  
    28     9    30 1   
    29    10    31 1   
    30    11    12 ar  
    31    11    32 1   
    32    12    33 1   
    33    13    15 ar  
    34    14    34 1   
    35    15    18 ar  
    36    15    35 1   
    37    16    36 1   
@<TRIPOS>SUBSTRUCTURE
     1 A1A         1 TEMP              0 ****  ****    0 ROOT
