@<TRIPOS>MOLECULE
A1A
   32    33     1     0     0
SMALL
abcg2


@<TRIPOS>ATOM
      1 C10         40.9690   -19.2630   -24.8630 c6         1 A1A       0.155800
      2 C13         39.4860   -16.9730   -23.8900 c6         1 A1A       0.118600
      3 C02         41.4430   -16.2760   -27.8050 c3         1 A1A       0.210900
      4 C03         42.3620   -16.3140   -26.6140 ca         1 A1A      -0.108300
      5 C04         43.4950   -15.5150   -26.5950 ca         1 A1A      -0.024000
      6 C05         44.4040   -15.5720   -25.5440 ca         1 A1A      -0.221300
      7 C06         44.1750   -16.4470   -24.4920 ca         1 A1A      -0.040000
      8 C07         43.0350   -17.2290   -24.4860 ca         1 A1A      -0.155000
      9 C08         42.1090   -17.1800   -25.5310 ca         1 A1A       0.306000
     10 C11         40.1870   -19.1780   -23.5370 c6         1 A1A       0.118600
     11 C14         39.6850   -17.3250   -25.3720 c6         1 A1A       0.155800
     12 F16         46.2440   -14.6430   -24.4080 f          1 A1A      -0.115667
     13 F17         45.3860   -13.4820   -26.0060 f          1 A1A      -0.115667
     14 F18         46.5480   -15.2300   -26.4540 f          1 A1A      -0.115667
     15 N09         40.9650   -17.9880   -25.5650 nh         1 A1A      -0.788400
     16 O01         42.1710   -15.9110   -28.9530 oh         1 A1A      -0.659000
     17 O12         40.1960   -17.8590   -23.0480 os         1 A1A      -0.443000
     18 H102        40.5060   -20.0190   -25.5050 h1         1 A1A       0.060200
     19 H101        41.9960   -19.5860   -24.6990 h1         1 A1A       0.060200
     20 H132        39.8730   -15.9740   -23.6810 h1         1 A1A       0.051700
     21 H131        38.4140   -16.9740   -23.6510 h1         1 A1A       0.051700
     22 H021        40.6290   -15.5630   -27.6190 h1         1 A1A       0.032700
     23 H022        40.9740   -17.2620   -27.9160 h1         1 A1A       0.032700
     24 H041        43.6790   -14.8540   -27.4320 ha         1 A1A       0.142000
     25 H061        44.8620   -16.5190   -23.6600 ha         1 A1A       0.130000
     26 H071        42.8580   -17.8770   -23.6390 ha         1 A1A       0.129000
     27 H111        39.1590   -19.5370   -23.6760 h1         1 A1A       0.051700
     28 H112        40.6480   -19.8120   -22.7780 h1         1 A1A       0.051700
     29 H141        39.6060   -16.4220   -25.9760 h1         1 A1A       0.060200
     30 H142        38.9020   -18.0020   -25.7250 h1         1 A1A       0.060200
     31 H011        41.5420   -15.7030   -29.6500 ho         1 A1A       0.446000
     32 C15         45.6380   -14.7350   -25.5970 c3         1 A1A       0.359300
@<TRIPOS>BOND
     1     1    10 1   
     2     1    15 1   
     3     1    18 1   
     4     1    19 1   
     5     2    11 1   
     6     2    17 1   
     7     2    20 1   
     8     2    21 1   
     9     3     4 1   
    10     3    16 1   
    11     3    22 1   
    12     3    23 1   
    13     4     5 ar  
    14     4     9 ar  
    15     5     6 ar  
    16     5    24 1   
    17     6     7 ar  
    18     6    32 1   
    19     7     8 ar  
    20     7    25 1   
    21     8     9 ar  
    22     8    26 1   
    23     9    15 1   
    24    10    17 1   
    25    10    27 1   
    26    10    28 1   
    27    11    15 1   
    28    11    29 1   
    29    11    30 1   
    30    12    32 1   
    31    13    32 1   
    32    14    32 1   
    33    16    31 1   
@<TRIPOS>SUBSTRUCTURE
     1 A1A         1 TEMP              0 ****  ****    0 ROOT
