@<TRIPOS>MOLECULE
A1A
   34    36     1     0     0
SMALL
abcg2


@<TRIPOS>ATOM
      1 C10         22.3790   -13.1720   -16.2060 ca         1 A1A      -0.108000
      2 C13         19.6610   -10.1240   -14.0290 c6         1 A1A      -0.098400
      3 C17         19.8350   -10.7160   -11.6190 c6         1 A1A      -0.098400
      4 C02         17.9880   -11.7030   -12.9530 c          1 A1A       0.538000
      5 C04         19.3690   -13.5490   -12.7150 c5         1 A1A       0.337200
      6 C06         20.5750   -12.7690   -14.6480 ca         1 A1A       0.218000
      7 C07         19.6620   -12.9510   -15.6880 ca         1 A1A      -0.108500
      8 C08         20.1070   -13.2340   -16.9710 ca         1 A1A      -0.108000
      9 C09         21.4660   -13.3400   -17.2370 ca         1 A1A      -0.106000
     10 C11         21.9330   -12.8940   -14.9200 ca         1 A1A      -0.108500
     11 C12         19.4490   -11.2460   -13.0220 c5         1 A1A       0.109200
     12 C14         21.1260    -9.6460   -14.0660 c6         1 A1A       0.156800
     13 C16         21.0300    -9.7440   -11.6800 c6         1 A1A       0.156800
     14 N03         18.0160   -13.0370   -12.8160 ns         1 A1A      -0.539900
     15 N05         20.1890   -12.4990   -13.2980 nh         1 A1A      -0.765400
     16 N15         21.8740    -9.9100   -12.8470 n7         1 A1A      -0.842400
     17 H101        23.4400   -13.2620   -16.3980 ha         1 A1A       0.117000
     18 H131        19.0110    -9.3060   -13.7080 hc         1 A1A       0.059200
     19 H132        19.3250   -10.4010   -15.0290 hc         1 A1A       0.059200
     20 H171        18.9800   -10.2000   -11.1770 hc         1 A1A       0.059200
     21 H172        20.0640   -11.5580   -10.9630 hc         1 A1A       0.059200
     22 H042        19.4830   -14.4890   -13.2530 h2         1 A1A       0.059200
     23 H041        19.6400   -13.7230   -11.6680 h2         1 A1A       0.059200
     24 H071        18.5980   -12.8760   -15.5020 ha         1 A1A       0.123000
     25 H081        19.3860   -13.3700   -17.7680 ha         1 A1A       0.117000
     26 H091        21.8090   -13.5570   -18.2400 ha         1 A1A       0.116000
     27 H111        22.6440   -12.7770   -14.1110 ha         1 A1A       0.123000
     28 H141        21.6560   -10.1110   -14.8980 h1         1 A1A       0.051950
     29 H142        21.1330    -8.5690   -14.2600 h1         1 A1A       0.051950
     30 H161        21.6360    -9.8480   -10.7790 h1         1 A1A       0.051950
     31 H162        20.6630    -8.7130   -11.6850 h1         1 A1A       0.051950
     32 H031        17.2010   -13.5830   -12.5810 hn         1 A1A       0.336500
     33 H1          22.2210   -10.8610   -12.8670 hn         1 A1A       0.415000
     34 O01         17.0050   -10.9840   -12.9830 o          1 A1A      -0.540000
@<TRIPOS>BOND
     1     1     9 ar  
     2     1    10 ar  
     3     1    17 1   
     4     2    11 1   
     5     2    12 1   
     6     2    18 1   
     7     2    19 1   
     8     3    11 1   
     9     3    13 1   
    10     3    20 1   
    11     3    21 1   
    12     4    11 1   
    13     4    14 1   
    14     4    34 2   
    15     5    14 1   
    16     5    15 1   
    17     5    22 1   
    18     5    23 1   
    19     6     7 ar  
    20     6    10 ar  
    21     6    15 1   
    22     7     8 ar  
    23     7    24 1   
    24     8     9 ar  
    25     8    25 1   
    26     9    26 1   
    27    10    27 1   
    28    11    15 1   
    29    12    16 1   
    30    12    28 1   
    31    12    29 1   
    32    13    16 1   
    33    13    30 1   
    34    13    31 1   
    35    14    32 1   
    36    16    33 1   
@<TRIPOS>SUBSTRUCTURE
     1 A1A         1 TEMP              0 ****  ****    0 ROOT
