@<TRIPOS>MOLECULE
A1A
   63    66     1     0     0
SMALL
abcg2


@<TRIPOS>ATOM
      1 C01         30.1040    15.1930    26.4800 c3         1 A1A      -0.027800
      2 C02         28.9100    14.5750    25.8490 cc         1 A1A      -0.143300
      3 C03         27.6640    14.2630    26.3580 cd         1 A1A      -0.168300
      4 C04         26.9670    13.7260    25.2490 cd         1 A1A       0.217500
      5 C05         25.5700    13.2350    25.0990 c          1 A1A       0.527600
      6 C07         23.6410    12.2750    26.2340 c3         1 A1A      -0.047000
      7 C08         22.6000    13.4210    26.3030 c          1 A1A       0.720000
      8 C15         27.1840    14.5790    27.7400 c3         1 A1A       0.012900
      9 C16         26.1190    15.6610    27.7510 c3         1 A1A       0.141600
     10 C18         25.8960    17.7820    26.6900 ca         1 A1A       0.130100
     11 C19         26.5000    18.7680    25.8920 cp         1 A1A       0.329500
     12 C20         27.9610    18.7390    25.6320 cp         1 A1A      -0.027500
     13 C21         28.4200    18.5470    24.3440 ca         1 A1A      -0.189000
     14 C22         29.8090    18.5630    24.0930 ca         1 A1A       0.601900
     15 C24         29.4950    18.0060    21.7200 c6         1 A1A       0.178800
     16 C25         30.0890    18.4740    20.3950 c6         1 A1A       0.138300
     17 C27         32.2680    18.5420    21.3350 c6         1 A1A       0.138300
     18 C28         31.7330    18.0610    22.6760 c6         1 A1A       0.178800
     19 C30         30.2180    18.9380    26.3220 ca         1 A1A       0.361900
     20 C31         28.8810    18.9370    26.6620 ca         1 A1A      -0.188000
     21 C33         24.4980    19.8170    25.5320 ca         1 A1A       0.278900
     22 C34         23.8210    18.9060    26.3230 ca         1 A1A      -0.107000
     23 C35         24.5260    17.8660    26.9110 ca         1 A1A      -0.137000
     24 N06         25.0200    12.6850    26.1890 ns         1 A1A      -0.469900
     25 N12         27.7300    13.7120    24.1680 nc         1 A1A      -0.481800
     26 N13         28.8900    14.2200    24.5450 na         1 A1A       0.127800
     27 N23         30.3310    18.4180    22.8340 nh         1 A1A      -0.779300
     28 N26         31.4780    18.1100    20.1970 n7         1 A1A      -0.846400
     29 N29         30.6760    18.7510    25.0910 nb         1 A1A      -0.767000
     30 N32         25.8080    19.7430    25.3230 nb         1 A1A      -0.648000
     31 O09         23.0110    14.5820    26.4720 o          1 A1A      -0.733000
     32 O10         21.4190    13.0390    26.1980 o          1 A1A      -0.733000
     33 O11         24.9890    13.3050    24.0240 o          1 A1A      -0.587100
     34 O17         26.6950    16.8200    27.1630 os         1 A1A      -0.343100
     35 H012        30.9620    14.5180    26.4710 hc         1 A1A       0.046033
     36 H013        30.4000    16.1080    25.9640 hc         1 A1A       0.046033
     37 H011        29.9010    15.4550    27.5150 hc         1 A1A       0.046033
     38 H072        23.4110    11.6400    25.3760 h1         1 A1A       0.032700
     39 H071        23.5180    11.6480    27.1190 h1         1 A1A       0.032700
     40 H141        29.5890    14.2210    22.6050 h1         1 A1A       0.049033
     41 H143        30.4980    15.2550    23.7120 h1         1 A1A       0.049033
     42 H142        30.7050    13.4980    23.7790 h1         1 A1A       0.049033
     43 H152        26.7780    13.7030    28.2520 hc         1 A1A       0.043200
     44 H151        28.0270    14.8980    28.3570 hc         1 A1A       0.043200
     45 H161        25.2400    15.3340    27.1890 h1         1 A1A       0.073700
     46 H162        25.8020    15.8760    28.7770 h1         1 A1A       0.073700
     47 H211        27.7000    18.3790    23.5570 ha         1 A1A       0.136000
     48 H251        29.4860    18.0700    19.5790 h1         1 A1A       0.058200
     49 H252        30.0110    19.5640    20.3420 h1         1 A1A       0.058200
     50 H271        33.2950    18.1910    21.2170 h1         1 A1A       0.058200
     51 H272        32.3010    19.6360    21.3340 h1         1 A1A       0.058200
     52 H282        31.8530    16.9700    22.7470 h1         1 A1A       0.050450
     53 H281        32.3110    18.5020    23.4830 h1         1 A1A       0.050450
     54 H301        30.9710    19.0940    27.0870 h4         1 A1A       0.003100
     55 H311        28.5670    19.0980    27.6840 ha         1 A1A       0.126000
     56 H331        23.9730    20.6320    25.0490 h4         1 A1A       0.010100
     57 H341        22.7540    18.9990    26.4750 ha         1 A1A       0.125000
     58 H351        24.0040    17.1370    27.5150 ha         1 A1A       0.159000
     59 H061        25.5620    12.6110    27.0320 hn         1 A1A       0.289500
     60 H262        31.5510    17.1020    20.1030 hn         1 A1A       0.400000
     61 C14         29.9860    14.3000    23.6120 c3         1 A1A       0.072900
     62 H242        29.3710    16.9140    21.7120 h1         1 A1A       0.050450
     63 H241        28.5030    18.4440    21.8070 h1         1 A1A       0.050450
@<TRIPOS>BOND
     1     1     2 1   
     2     1    35 1   
     3     1    36 1   
     4     1    37 1   
     5     2     3 2   
     6     2    26 1   
     7     3     4 1   
     8     3     8 1   
     9     4     5 1   
    10     4    25 2   
    11     5    24 1   
    12     5    33 2   
    13     6     7 1   
    14     6    24 1   
    15     6    38 1   
    16     6    39 1   
    17     7    31 1   
    18     7    32 1   
    19     8     9 1   
    20     8    43 1   
    21     8    44 1   
    22     9    34 1   
    23     9    45 1   
    24     9    46 1   
    25    10    11 ar  
    26    10    23 ar  
    27    10    34 1   
    28    11    12 1   
    29    11    30 ar  
    30    12    13 ar  
    31    12    20 ar  
    32    13    14 ar  
    33    13    47 1   
    34    14    27 1   
    35    14    29 ar  
    36    15    16 1   
    37    15    27 1   
    38    15    62 1   
    39    15    63 1   
    40    16    28 1   
    41    16    48 1   
    42    16    49 1   
    43    17    18 1   
    44    17    28 1   
    45    17    50 1   
    46    17    51 1   
    47    18    27 1   
    48    18    52 1   
    49    18    53 1   
    50    19    20 ar  
    51    19    29 ar  
    52    19    54 1   
    53    20    55 1   
    54    21    22 ar  
    55    21    30 ar  
    56    21    56 1   
    57    22    23 ar  
    58    22    57 1   
    59    23    58 1   
    60    24    59 1   
    61    25    26 1   
    62    26    61 1   
    63    28    60 1   
    64    40    61 1   
    65    41    61 1   
    66    42    61 1   
@<TRIPOS>SUBSTRUCTURE
     1 A1A         1 TEMP              0 ****  ****    0 ROOT
