@<TRIPOS>MOLECULE
A1A
   40    42     1     0     0
SMALL
No Charge or Current Charge


@<TRIPOS>ATOM
      1 C10        -51.3790    30.5520    -8.3780 ca         1 A1A      -0.044000
      2 C15        -56.0880    28.6460    -5.1290 c6         1 A1A      -0.085400
      3 C17        -58.5230    28.6080    -5.7860 c6         1 A1A      -0.087400
      4 C01        -59.1380    31.1760    -3.2470 c3         1 A1A      -0.176100
      5 C05        -56.6510    31.2890    -6.2870 c6         1 A1A       0.091000
      6 C06        -55.4330    30.4290    -6.7340 c6         1 A1A       0.181300
      7 C08        -53.7910    30.3990    -8.4910 ca         1 A1A       0.603300
      8 C09        -52.6400    30.9890    -7.9450 ca         1 A1A      -0.176000
      9 C11        -51.3380    29.5340    -9.3430 ca         1 A1A      -0.208000
     10 C12        -52.5420    29.0000    -9.8310 ca         1 A1A       0.374900
     11 C14        -55.6550    28.8910    -6.5910 c6         1 A1A      -0.109700
     12 C16        -57.4660    29.3050    -4.8800 c6         1 A1A       0.121700
     13 C18        -58.1590    28.6530    -7.2950 c6         1 A1A      -0.070400
     14 C19        -56.6930    28.2130    -7.5530 c6         1 A1A       0.190300
     15 N04        -57.4400    30.7890    -5.1070 n          1 A1A      -0.404800
     16 N13        -53.7560    29.4200    -9.4120 nb         1 A1A      -0.780000
     17 O03        -58.5040    32.8090    -4.8700 o          1 A1A      -0.606100
     18 O07        -55.0280    30.7940    -8.0670 os         1 A1A      -0.447300
     19 O20        -56.3650    28.4000    -8.9310 oh         1 A1A      -0.651000
     20 H101       -50.4640    30.9880    -7.9800 ha         1 A1A       0.120000
     21 H152       -56.1410    27.5680    -4.9210 hc         1 A1A       0.052700
     22 H151       -55.3450    29.0560    -4.4310 hc         1 A1A       0.052700
     23 H172       -59.5120    29.0600    -5.6320 hc         1 A1A       0.045200
     24 H171       -58.6200    27.5590    -5.4750 hc         1 A1A       0.045200
     25 H012       -59.7710    31.9600    -2.8180 hc         1 A1A       0.059367
     26 H013       -59.7290    30.2930    -3.5110 hc         1 A1A       0.059367
     27 H011       -58.4320    30.7850    -2.5060 hc         1 A1A       0.059367
     28 H051       -56.2680    32.2920    -6.0490 h1         1 A1A       0.067700
     29 H052       -57.3300    31.4260    -7.1370 h1         1 A1A       0.067700
     30 H061       -54.6140    30.6970    -6.0500 h1         1 A1A       0.068700
     31 H091       -52.7290    31.7770    -7.2040 ha         1 A1A       0.139000
     32 H111       -50.3880    29.1580    -9.7140 ha         1 A1A       0.125000
     33 H121       -52.5340    28.2080   -10.5800 h4         1 A1A       0.014100
     34 H141       -54.6870    28.3920    -6.7370 hc         1 A1A       0.060700
     35 H161       -57.7250    29.1010    -3.8330 h1         1 A1A       0.047700
     36 H182       -58.3440    29.6520    -7.7060 hc         1 A1A       0.064700
     37 H181       -58.8370    27.9880    -7.8480 hc         1 A1A       0.064700
     38 H191       -56.6510    27.1350    -7.3370 h1         1 A1A       0.016700
     39 H201       -55.4850    28.8600    -8.9620 ho         1 A1A       0.447000
     40 C02        -58.3590    31.6600    -4.4740 c          1 A1A       0.604100
@<TRIPOS>BOND
     1     1     8 ar  
     2     1     9 ar  
     3     1    20 1   
     4     2    11 1   
     5     2    12 1   
     6     2    21 1   
     7     2    22 1   
     8     3    12 1   
     9     3    13 1   
    10     3    23 1   
    11     3    24 1   
    12     4    25 1   
    13     4    26 1   
    14     4    27 1   
    15     4    40 1   
    16     5     6 1   
    17     5    15 1   
    18     5    28 1   
    19     5    29 1   
    20     6    11 1   
    21     6    18 1   
    22     6    30 1   
    23     7     8 ar  
    24     7    16 ar  
    25     7    18 1   
    26     8    31 1   
    27     9    10 ar  
    28     9    32 1   
    29    10    16 ar  
    30    10    33 1   
    31    11    14 1   
    32    11    34 1   
    33    12    15 1   
    34    12    35 1   
    35    13    14 1   
    36    13    36 1   
    37    13    37 1   
    38    14    19 1   
    39    14    38 1   
    40    15    40 1   
    41    17    40 2   
    42    19    39 1   
@<TRIPOS>SUBSTRUCTURE
     1 A1A         1 TEMP              0 ****  ****    0 ROOT
