@<TRIPOS>MOLECULE
A1A
   47    50     1     0     0
SMALL
abcg2


@<TRIPOS>ATOM
      1 C10        -18.0620     9.1550     1.4010 c3         1 A1A       0.196800
      2 C13        -15.5820     9.8260     1.7330 cx         1 A1A      -0.126400
      3 C15        -21.1130     9.2020    -0.7790 c5         1 A1A       0.181500
      4 C17        -23.2580    10.5110    -1.3350 ca         1 A1A      -0.084300
      5 C20        -24.5170    12.4250    -2.9470 ca         1 A1A      -0.109000
      6 C21        -23.7920    11.3870    -3.5250 ca         1 A1A      -0.113000
      7 C22        -23.1710    10.4400    -2.7250 ca         1 A1A      -0.104500
      8 C02        -24.3050     7.8760     0.4920 c          1 A1A       0.610100
      9 C04        -23.2700     8.0750    -0.5930 c5         1 A1A      -0.150700
     10 C05        -22.0970     7.1070    -0.5550 c5         1 A1A       0.173800
     11 C07        -19.7650     7.2760    -1.3610 c6         1 A1A       0.174800
     12 C08        -18.9500     7.4730    -0.0900 c6         1 A1A       0.125800
     13 C11        -16.6010     8.9040     1.1370 cx         1 A1A      -0.125700
     14 C12        -15.8520     9.8550     0.2590 cx         1 A1A      -0.126400
     15 C14        -20.2590     9.3660     0.4780 c6         1 A1A       0.130800
     16 C16        -22.6010     9.4760    -0.4650 c5         1 A1A      -0.013400
     17 C18        -23.9860    11.5530    -0.7680 ca         1 A1A      -0.104500
     18 C19        -24.6120    12.5040    -1.5650 ca         1 A1A      -0.113000
     19 N01        -25.5530     8.2250     0.1440 nt         1 A1A      -0.606000
     20 N06        -21.0950     7.8440    -1.3010 n3         1 A1A      -0.728600
     21 N09        -18.9120     8.8830     0.2560 n3         1 A1A      -0.709600
     22 O03        -24.0160     7.4760     1.6110 o          1 A1A      -0.611100
     23 H101       -18.1910    10.2100     1.6620 h1         1 A1A       0.033200
     24 H102       -18.3820     8.5770     2.2860 h1         1 A1A       0.033200
     25 H132       -14.6470     9.4020     2.0750 hc         1 A1A       0.071200
     26 H131       -15.9370    10.6570     2.3320 hc         1 A1A       0.071200
     27 H151       -20.7240     9.8840    -1.5430 h1         1 A1A       0.084700
     28 H201       -25.0020    13.1640    -3.5700 ha         1 A1A       0.113000
     29 H211       -23.7120    11.3180    -4.6020 ha         1 A1A       0.113500
     30 H221       -22.6140     9.6330    -3.1870 ha         1 A1A       0.119500
     31 H041       -23.7440     8.0020    -1.5750 hc         1 A1A       0.071700
     32 H051       -22.3250     6.1600    -1.0480 h1         1 A1A       0.052700
     33 H052       -21.8100     6.8800     0.4800 h1         1 A1A       0.052700
     34 H072       -19.8420     6.2120    -1.5970 h1         1 A1A       0.057700
     35 H071       -19.2270     7.7490    -2.1890 h1         1 A1A       0.057700
     36 H081       -19.3650     6.8670     0.7360 h1         1 A1A       0.037200
     37 H082       -17.9370     7.1080    -0.2700 h1         1 A1A       0.037200
     38 H111       -16.3030     7.8630     1.0750 hc         1 A1A       0.074700
     39 H122       -15.0990     9.4600    -0.4110 hc         1 A1A       0.071200
     40 H121       -16.4000    10.7010    -0.1400 hc         1 A1A       0.071200
     41 H142       -20.2230    10.4290     0.7370 h1         1 A1A       0.040200
     42 H141       -20.7410     8.8520     1.3310 h1         1 A1A       0.040200
     43 H161       -22.6780     9.8160     0.5720 hc         1 A1A       0.066700
     44 H181       -24.0630    11.6230     0.3110 ha         1 A1A       0.119500
     45 H191       -25.1740    13.3070    -1.1040 ha         1 A1A       0.113500
     46 H011       -26.3030     8.1840     0.8160 hn         1 A1A       0.315000
     47 H012       -25.7780     8.5500    -0.7800 hn         1 A1A       0.315000
@<TRIPOS>BOND
     1     1    13 1   
     2     1    21 1   
     3     1    23 1   
     4     1    24 1   
     5     2    13 1   
     6     2    14 1   
     7     2    25 1   
     8     2    26 1   
     9     3    15 1   
    10     3    16 1   
    11     3    20 1   
    12     3    27 1   
    13     4     7 ar  
    14     4    16 1   
    15     4    17 ar  
    16     5     6 ar  
    17     5    18 ar  
    18     5    28 1   
    19     6     7 ar  
    20     6    29 1   
    21     7    30 1   
    22     8     9 1   
    23     8    19 1   
    24     8    22 2   
    25     9    10 1   
    26     9    16 1   
    27     9    31 1   
    28    10    20 1   
    29    10    32 1   
    30    10    33 1   
    31    11    12 1   
    32    11    20 1   
    33    11    34 1   
    34    11    35 1   
    35    12    21 1   
    36    12    36 1   
    37    12    37 1   
    38    13    14 1   
    39    13    38 1   
    40    14    39 1   
    41    14    40 1   
    42    15    21 1   
    43    15    41 1   
    44    15    42 1   
    45    16    43 1   
    46    17    18 ar  
    47    17    44 1   
    48    18    45 1   
    49    19    46 1   
    50    19    47 1   
@<TRIPOS>SUBSTRUCTURE
     1 A1A         1 TEMP              0 ****  ****    0 ROOT
