@<TRIPOS>MOLECULE
A1A
   22    22     1     0     0
SMALL
No Charge or Current Charge


@<TRIPOS>ATOM
      1 C10        -63.8850    22.1830   -11.4010 c          1 A1A       0.715600
      2 C01        -70.2580    19.7640   -10.1180 c3         1 A1A      -0.129100
      3 C02        -69.8760    20.4490    -8.7930 c3         1 A1A       0.216800
      4 C04        -67.3590    20.7350    -9.2060 ca         1 A1A       0.265000
      5 C05        -67.4570    21.8820   -10.0100 ca         1 A1A      -0.205500
      6 C06        -66.3380    22.3510   -10.7200 ca         1 A1A      -0.056000
      7 C07        -65.0960    21.6790   -10.6350 ca         1 A1A      -0.163600
      8 C08        -65.0080    20.5290    -9.8180 ca         1 A1A      -0.056000
      9 C09        -66.1320    20.0650    -9.1100 ca         1 A1A      -0.205500
     10 O11        -62.8300    21.5720   -11.2970 o          1 A1A      -0.728000
     11 O12        -64.0050    23.1830   -12.0950 o          1 A1A      -0.728000
     12 H013       -71.3270    19.9020   -10.3180 hc         1 A1A       0.034367
     13 H011       -69.6970    20.1890   -10.9580 hc         1 A1A       0.034367
     14 H012       -70.0560    18.6870   -10.0720 hc         1 A1A       0.034367
     15 H021       -70.1100    21.5210    -8.8510 h1         1 A1A       0.037200
     16 H022       -70.4900    20.0220    -7.9880 h1         1 A1A       0.037200
     17 H051       -68.3960    22.4210   -10.0910 ha         1 A1A       0.083500
     18 H061       -66.4400    23.2420   -11.3370 ha         1 A1A       0.122000
     19 H081       -64.0680    19.9880    -9.7270 ha         1 A1A       0.122000
     20 H091       -66.0410    19.1790    -8.4880 ha         1 A1A       0.083500
     21 H031       -68.2370    19.4510    -7.8840 hn         1 A1A       0.444000
     22 N03        -68.4500    20.2470    -8.4850 nu         1 A1A      -0.958200
@<TRIPOS>BOND
     1     1     7 1   
     2     1    10 1   
     3     1    11 1   
     4     2     3 1   
     5     2    12 1   
     6     2    13 1   
     7     2    14 1   
     8     3    15 1   
     9     3    16 1   
    10     3    22 1   
    11     4     5 ar  
    12     4     9 ar  
    13     4    22 1   
    14     5     6 ar  
    15     5    17 1   
    16     6     7 ar  
    17     6    18 1   
    18     7     8 ar  
    19     8     9 ar  
    20     8    19 1   
    21     9    20 1   
    22    21    22 1   
@<TRIPOS>SUBSTRUCTURE
     1 A1A         1 TEMP              0 ****  ****    0 ROOT
