@<TRIPOS>MOLECULE
A1A
   20    21     1     0     0
SMALL
abcg2


@<TRIPOS>ATOM
      1 C10         42.0590   -15.1780   -24.8310 ca         1 A1A      -0.016000
      2 C02         43.6730   -16.3120   -26.3430 c          1 A1A       0.600700
      3 C03         45.1480   -16.6870   -26.4700 c6         1 A1A      -0.150600
      4 C04         45.6550   -17.2290   -25.1320 c6         1 A1A       0.175600
      5 C06         44.2660   -15.7120   -24.0030 ca         1 A1A       0.176100
      6 C07         43.9570   -15.0920   -22.7950 ca         1 A1A      -0.154000
      7 C08         42.7090   -14.5260   -22.6210 ca         1 A1A      -0.044000
      8 C09         41.7490   -14.5730   -23.6330 ca         1 A1A      -0.156000
      9 C11         43.3220   -15.7470   -25.0380 ca         1 A1A      -0.263600
     10 C12         45.3520   -17.6390   -27.5460 c1         1 A1A       0.307900
     11 N13         45.5230   -18.4030   -28.3880 n1         1 A1A      -0.428000
     12 O01         42.9030   -16.4460   -27.2620 o          1 A1A      -0.490100
     13 O05         45.4910   -16.2540   -24.1240 os         1 A1A      -0.332100
     14 H101        41.3330   -15.2080   -25.6330 ha         1 A1A       0.135000
     15 H1          45.7020   -15.7710   -26.7200 hc         1 A1A       0.112700
     16 H041        45.1090   -18.1420   -24.8670 h1         1 A1A       0.073700
     17 H2          46.7170   -17.4580   -25.1810 h1         1 A1A       0.073700
     18 H071        44.6930   -15.0660   -22.0030 ha         1 A1A       0.135000
     19 H081        42.4730   -14.0490   -21.6780 ha         1 A1A       0.120000
     20 H091        40.7730   -14.1320   -23.4810 ha         1 A1A       0.125000
@<TRIPOS>BOND
     1     1     8 ar  
     2     1     9 ar  
     3     1    14 1   
     4     2     3 1   
     5     2     9 1   
     6     2    12 2   
     7     3     4 1   
     8     3    10 1   
     9     3    15 1   
    10     4    13 1   
    11     4    16 1   
    12     4    17 1   
    13     5     6 ar  
    14     5     9 ar  
    15     5    13 1   
    16     6     7 ar  
    17     6    18 1   
    18     7     8 ar  
    19     7    19 1   
    20     8    20 1   
    21    10    11 3   
@<TRIPOS>SUBSTRUCTURE
     1 A1A         1 TEMP              0 ****  ****    0 ROOT
