@<TRIPOS>MOLECULE
A1A
   29    30     1     0     0
SMALL
abcg2


@<TRIPOS>ATOM
      1 C10         22.5610   -19.6530   -24.1250 ca         1 A1A      -0.065000
      2 C13         22.9820   -22.3480   -24.5280 ca         1 A1A      -0.228500
      3 C02         20.3690   -26.4420   -24.6730 c3         1 A1A       0.167600
      4 C03         21.8350   -26.1880   -24.3980 c3         1 A1A       0.217800
      5 C05         21.8610   -24.3130   -22.7400 c6         1 A1A       0.159800
      6 C06         21.2430   -22.9250   -22.7490 c6         1 A1A       0.209600
      7 C08         22.0580   -21.9520   -23.5660 ca         1 A1A       0.010700
      8 C09         21.8550   -20.5860   -23.3850 ca         1 A1A      -0.107000
      9 C11         23.4880   -20.0710   -25.0740 ca         1 A1A      -0.116000
     10 C12         23.7010   -21.4220   -25.2770 ca         1 A1A      -0.022000
     11 N04         22.0820   -24.7760   -24.1040 n3         1 A1A      -0.734500
     12 O01         20.0040   -25.7760   -25.8550 oh         1 A1A      -0.632000
     13 O07         19.9460   -22.9180   -23.2970 oh         1 A1A      -0.626000
     14 O15         23.2570   -24.3100   -26.2780 o          1 A1A      -0.538000
     15 O16         24.6290   -24.3560   -24.2100 o          1 A1A      -0.538000
     16 S14         23.3540   -24.0520   -24.8490 sy         1 A1A       1.161600
     17 H101        22.3920   -18.5970   -23.9620 ha         1 A1A       0.117000
     18 H021        19.7710   -26.1110   -23.8140 h1         1 A1A       0.015700
     19 H022        20.2330   -27.5290   -24.7500 h1         1 A1A       0.015700
     20 H031        22.1620   -26.8100   -23.5610 h1         1 A1A       0.061200
     21 H032        22.4220   -26.4960   -25.2640 h1         1 A1A       0.061200
     22 H052        21.1780   -25.0110   -22.2550 h1         1 A1A       0.059200
     23 H051        22.7810   -24.3170   -22.1440 h1         1 A1A       0.059200
     24 H061        21.2370   -22.5660   -21.7120 h1         1 A1A       0.043700
     25 H091        21.1400   -20.2540   -22.6430 ha         1 A1A       0.116000
     26 H111        24.0420   -19.3460   -25.6540 ha         1 A1A       0.120000
     27 H121        24.4190   -21.7470   -26.0200 ha         1 A1A       0.132000
     28 H011        19.0560   -25.8790   -25.9790 ho         1 A1A       0.441000
     29 H071        19.3590   -23.3810   -22.6880 ho         1 A1A       0.440000
@<TRIPOS>BOND
     1     1     8 ar  
     2     1     9 ar  
     3     1    17 1   
     4     2     7 ar  
     5     2    10 ar  
     6     2    16 1   
     7     3     4 1   
     8     3    12 1   
     9     3    18 1   
    10     3    19 1   
    11     4    11 1   
    12     4    20 1   
    13     4    21 1   
    14     5     6 1   
    15     5    11 1   
    16     5    22 1   
    17     5    23 1   
    18     6     7 1   
    19     6    13 1   
    20     6    24 1   
    21     7     8 ar  
    22     8    25 1   
    23     9    10 ar  
    24     9    26 1   
    25    10    27 1   
    26    11    16 1   
    27    12    28 1   
    28    13    29 1   
    29    14    16 2   
    30    15    16 2   
@<TRIPOS>SUBSTRUCTURE
     1 A1A         1 TEMP              0 ****  ****    0 ROOT
