@<TRIPOS>MOLECULE
A1A
   29    30     1     0     0
SMALL
No Charge or Current Charge


@<TRIPOS>ATOM
      1 C10         23.0410   -19.5290   -23.6700 ca         1 A1A      -0.065000
      2 C13         22.9750   -22.1850   -24.6150 ca         1 A1A      -0.228500
      3 C02         20.5230   -26.9400   -24.1520 c3         1 A1A       0.167600
      4 C03         21.8070   -26.1480   -24.5420 c3         1 A1A       0.217800
      5 C05         21.4770   -24.1600   -23.0530 c6         1 A1A       0.159800
      6 C06         20.9590   -22.7030   -23.1040 c6         1 A1A       0.209600
      7 C08         22.0290   -21.7550   -23.6530 ca         1 A1A       0.010700
      8 C09         22.0700   -20.4240   -23.1900 ca         1 A1A      -0.107000
      9 C11         23.9810   -19.9600   -24.6190 ca         1 A1A      -0.116000
     10 C12         23.9490   -21.2820   -25.0920 ca         1 A1A      -0.022000
     11 N04         21.7230   -24.6650   -24.4290 n3         1 A1A      -0.734500
     12 O01         19.3810   -26.5180   -24.9200 oh         1 A1A      -0.632000
     13 O07         19.8040   -22.6660   -23.9510 oh         1 A1A      -0.626000
     14 O15         22.5610   -23.7950   -26.6740 o          1 A1A      -0.538000
     15 O16         24.2400   -24.5060   -24.8770 o          1 A1A      -0.538000
     16 S14         22.9770   -23.8710   -25.2690 sy         1 A1A       1.161600
     17 H101        23.0650   -18.5040   -23.3050 ha         1 A1A       0.117000
     18 H021        20.3250   -26.8140   -23.0800 h1         1 A1A       0.015700
     19 H022        20.7110   -28.0080   -24.3210 h1         1 A1A       0.015700
     20 H031        22.6360   -26.5230   -23.9280 h1         1 A1A       0.061200
     21 H032        22.0380   -26.4250   -25.5800 h1         1 A1A       0.061200
     22 H052        20.7180   -24.7620   -22.5360 h1         1 A1A       0.059200
     23 H051        22.3920   -24.2090   -22.4440 h1         1 A1A       0.059200
     24 H061        20.6940   -22.3880   -22.0840 h1         1 A1A       0.043700
     25 H091        21.3440   -20.0810   -22.4560 ha         1 A1A       0.116000
     26 H111        24.7340   -19.2680   -24.9910 ha         1 A1A       0.120000
     27 H121        24.6810   -21.6030   -25.8310 ha         1 A1A       0.132000
     28 H011        18.6140   -27.0410   -24.6010 ho         1 A1A       0.441000
     29 H071        19.9660   -23.3990   -24.5890 ho         1 A1A       0.440000
@<TRIPOS>BOND
     1     1     8 ar  
     2     1     9 ar  
     3     1    17 1   
     4     2     7 ar  
     5     2    10 ar  
     6     2    16 1   
     7     3     4 1   
     8     3    12 1   
     9     3    18 1   
    10     3    19 1   
    11     4    11 1   
    12     4    20 1   
    13     4    21 1   
    14     5     6 1   
    15     5    11 1   
    16     5    22 1   
    17     5    23 1   
    18     6     7 1   
    19     6    13 1   
    20     6    24 1   
    21     7     8 ar  
    22     8    25 1   
    23     9    10 ar  
    24     9    26 1   
    25    10    27 1   
    26    11    16 1   
    27    12    28 1   
    28    13    29 1   
    29    14    16 2   
    30    15    16 2   
@<TRIPOS>SUBSTRUCTURE
     1 A1A         1 TEMP              0 ****  ****    0 ROOT
