@<TRIPOS>MOLECULE
A1A
   29    31     1     0     0
SMALL
No Charge or Current Charge


@<TRIPOS>ATOM
      1 C13         -6.0180    46.8870    99.7330 ca         1 A1A      -0.219600
      2 C15         -5.3180    48.7340    98.3090 ca         1 A1A      -0.167000
      3 C17         -7.6650    48.1190    98.4440 ca         1 A1A      -0.189000
      4 C02         -9.3600    45.2440   102.6010 ca         1 A1A       0.228000
      5 C03        -10.3610    44.8570   103.5070 ca         1 A1A      -0.165000
      6 C04        -11.1910    43.7640   103.2190 ca         1 A1A      -0.058000
      7 C05        -11.0150    43.0610   102.0190 ca         1 A1A      -0.132000
      8 C06        -10.0150    43.4420   101.1080 ca         1 A1A       0.158000
      9 C08         -9.1700    44.5420   101.3870 ca         1 A1A      -0.175300
     10 C09         -8.0800    44.9600   100.3970 c6         1 A1A       0.459200
     11 C11         -5.7350    45.7960   100.7090 c          1 A1A       0.592600
     12 C14         -4.9960    47.7110    99.2180 ca         1 A1A      -0.014000
     13 C16         -6.6520    48.9400    97.9190 ca         1 A1A      -0.046000
     14 C18         -7.3410    47.0970    99.3470 ca         1 A1A       0.332000
     15 N10         -6.7830    44.9810   101.0380 ns         1 A1A      -0.509900
     16 N19         -8.3300    46.2930    99.8850 nu         1 A1A      -0.938200
     17 O12         -4.6370    45.6310   101.2180 o          1 A1A      -0.555000
     18 Cl07        -9.8650    42.5060    99.6200 cl         1 A1A      -0.189000
     19 H151        -4.5310    49.3700    97.9070 ha         1 A1A       0.120000
     20 H171        -8.6980    48.2810    98.1490 ha         1 A1A       0.115000
     21 H031       -10.4900    45.4100   104.4340 ha         1 A1A       0.142000
     22 H041       -11.9670    43.4650   103.9220 ha         1 A1A       0.127000
     23 H051       -11.6570    42.2130   101.7910 ha         1 A1A       0.138000
     24 H091        -8.0260    44.2450    99.5640 h2         1 A1A       0.043700
     25 H141        -3.9610    47.5600    99.5170 ha         1 A1A       0.135000
     26 H161        -6.9010    49.7340    97.2170 ha         1 A1A       0.112000
     27 H101        -6.5870    44.2610   101.7180 hn         1 A1A       0.324500
     28 H191        -9.2780    46.4930    99.5730 hn         1 A1A       0.478000
     29 F01         -8.5850    46.3050   102.9240 f          1 A1A      -0.146000
@<TRIPOS>BOND
     1     1    11 1   
     2     1    12 ar  
     3     1    14 ar  
     4     2    12 ar  
     5     2    13 ar  
     6     2    19 1   
     7     3    13 ar  
     8     3    14 ar  
     9     3    20 1   
    10     4     5 ar  
    11     4     9 ar  
    12     4    29 1   
    13     5     6 ar  
    14     5    21 1   
    15     6     7 ar  
    16     6    22 1   
    17     7     8 ar  
    18     7    23 1   
    19     8     9 ar  
    20     8    18 1   
    21     9    10 1   
    22    10    15 1   
    23    10    16 1   
    24    10    24 1   
    25    11    15 1   
    26    11    17 2   
    27    12    25 1   
    28    13    26 1   
    29    14    16 1   
    30    15    27 1   
    31    16    28 1   
@<TRIPOS>SUBSTRUCTURE
     1 A1A         1 TEMP              0 ****  ****    0 ROOT
