@<TRIPOS>MOLECULE
A1A
   32    33     1     0     0
SMALL
abcg2


@<TRIPOS>ATOM
      1 C13         22.4950   -26.5670   -24.6740 ca         1 A1A      -0.023000
      2 C15         20.3550   -27.3780   -25.3930 ca         1 A1A      -0.065000
      3 C17         20.7880   -24.9980   -25.4050 ca         1 A1A       0.010700
      4 C03         20.2830   -23.5980   -25.6610 c6         1 A1A       0.200600
      5 C04         21.4330   -22.6250   -25.8690 c6         1 A1A       0.175800
      6 C07         23.9730   -20.7700   -24.8090 c3         1 A1A       0.124600
      7 C12         22.0630   -25.2670   -24.9160 ca         1 A1A      -0.231500
      8 C14         21.6350   -27.6240   -24.9120 ca         1 A1A      -0.116000
      9 C16         19.9400   -26.0780   -25.6320 ca         1 A1A      -0.107000
     10 N05         22.3140   -22.6620   -24.7070 n3         1 A1A      -0.745500
     11 O02         19.4720   -23.2710   -24.5600 os         1 A1A      -0.432000
     12 O08         23.6090   -20.4790   -26.1360 oh         1 A1A      -0.665000
     13 S09         23.2650   -23.9940   -24.6290 sy         1 A1A       1.164600
     14 H131        23.4920   -26.7600   -24.2980 ha         1 A1A       0.131000
     15 H151        19.6800   -28.2010   -25.5860 ha         1 A1A       0.117000
     16 H012        17.9860   -22.0700   -23.9010 h1         1 A1A       0.031367
     17 H013        19.2550   -21.1980   -24.7670 h1         1 A1A       0.031367
     18 H011        18.0850   -22.1820   -25.6680 h1         1 A1A       0.031367
     19 H031        19.6890   -23.6090   -26.5860 h1         1 A1A       0.049700
     20 H042        21.9520   -22.8640   -26.8030 h1         1 A1A       0.071700
     21 H041        21.0670   -21.6060   -25.9830 h1         1 A1A       0.071700
     22 H061        21.9480   -20.7450   -24.0820 h1         1 A1A       0.076200
     23 H062        23.0720   -21.6150   -23.0670 h1         1 A1A       0.076200
     24 H072        24.8490   -21.4280   -24.7610 h1         1 A1A       0.034200
     25 H071        24.2300   -19.8650   -24.2440 h1         1 A1A       0.034200
     26 H141        21.9640   -28.6370   -24.7240 ha         1 A1A       0.120000
     27 H161        18.9430   -25.8930   -26.0140 ha         1 A1A       0.117000
     28 H081        24.3800   -20.1360   -26.5960 ho         1 A1A       0.452000
     29 C06         22.8010   -21.4250   -24.1050 c3         1 A1A       0.215800
     30 C01         18.6730   -22.1260   -24.7440 c3         1 A1A       0.142900
     31 O10         24.2390   -24.0720   -25.7120 o          1 A1A      -0.546500
     32 O11         23.7890   -24.0940   -23.2740 o          1 A1A      -0.546500
@<TRIPOS>BOND
     1     1     7 ar  
     2     1     8 ar  
     3     1    14 1   
     4     2     8 ar  
     5     2     9 ar  
     6     2    15 1   
     7     3     4 1   
     8     3     7 ar  
     9     3     9 ar  
    10     4     5 1   
    11     4    11 1   
    12     4    19 1   
    13     5    10 1   
    14     5    20 1   
    15     5    21 1   
    16     6    12 1   
    17     6    24 1   
    18     6    25 1   
    19     6    29 1   
    20     7    13 1   
    21     8    26 1   
    22     9    27 1   
    23    10    13 1   
    24    10    29 1   
    25    11    30 1   
    26    12    28 1   
    27    13    31 2   
    28    13    32 2   
    29    16    30 1   
    30    17    30 1   
    31    18    30 1   
    32    22    29 1   
    33    23    29 1   
@<TRIPOS>SUBSTRUCTURE
     1 A1A         1 TEMP              0 ****  ****    0 ROOT
