@<TRIPOS>MOLECULE
A1A
   27    28     1     0     0
SMALL
abcg2


@<TRIPOS>ATOM
      1 C10         31.7640   -11.8130    -5.0060 ca         1 A1A      -0.085000
      2 C13         30.1670    -9.9310    -3.7640 ca         1 A1A      -0.139000
      3 C01         27.4070    -9.9720    -1.3890 c3         1 A1A      -0.366100
      4 C06         28.5160   -13.0950    -2.5410 c6         1 A1A       0.228800
      5 C07         29.7870   -13.8840    -2.7770 c6         1 A1A      -0.084400
      6 C08         30.2560   -13.6750    -4.2110 c6         1 A1A      -0.026100
      7 C09         30.6050   -12.2260    -4.3620 ca         1 A1A      -0.105300
      8 C11         32.1180   -10.4740    -5.0680 ca         1 A1A      -0.125000
      9 C12         31.3140    -9.5380    -4.4380 ca         1 A1A      -0.080000
     10 C14         29.7840   -11.2720    -3.7450 ca         1 A1A       0.313000
     11 N05         28.6150   -11.7280    -3.0950 nh         1 A1A      -0.801300
     12 O03         27.2450    -9.7930    -4.0110 o          1 A1A      -0.531000
     13 O04         26.1190   -11.7040    -2.8570 o          1 A1A      -0.531000
     14 S02         27.2470   -10.7920    -2.9580 s6         1 A1A       1.231100
     15 H101        32.3970   -12.5640    -5.4640 ha         1 A1A       0.113000
     16 H131        29.5880    -9.1690    -3.2630 ha         1 A1A       0.115000
     17 H013        27.5060   -10.7190    -0.6040 h1         1 A1A       0.102033
     18 H011        28.2780    -9.3210    -1.3970 h1         1 A1A       0.102033
     19 H012        26.5050    -9.3840    -1.2300 h1         1 A1A       0.102033
     20 H062        28.3000   -13.0420    -1.4710 h1         1 A1A       0.055700
     21 H061        27.6910   -13.6150    -3.0250 h1         1 A1A       0.055700
     22 H072        29.5680   -14.9330    -2.5740 hc         1 A1A       0.053700
     23 H071        30.5740   -13.5790    -2.0850 hc         1 A1A       0.053700
     24 H082        29.4590   -13.9650    -4.9040 hc         1 A1A       0.056700
     25 H081        31.1210   -14.2980    -4.4410 hc         1 A1A       0.056700
     26 H111        33.0190   -10.1700    -5.5840 ha         1 A1A       0.118000
     27 H121        31.5820    -8.4890    -4.4500 ha         1 A1A       0.117000
@<TRIPOS>BOND
     1     1     7 ar  
     2     1     8 ar  
     3     1    15 1   
     4     2     9 ar  
     5     2    10 ar  
     6     2    16 1   
     7     3    14 1   
     8     3    17 1   
     9     3    18 1   
    10     3    19 1   
    11     4     5 1   
    12     4    11 1   
    13     4    20 1   
    14     4    21 1   
    15     5     6 1   
    16     5    22 1   
    17     5    23 1   
    18     6     7 1   
    19     6    24 1   
    20     6    25 1   
    21     7    10 ar  
    22     8     9 ar  
    23     8    26 1   
    24     9    27 1   
    25    10    11 1   
    26    11    14 1   
    27    12    14 2   
    28    13    14 2   
@<TRIPOS>SUBSTRUCTURE
     1 A1A         1 TEMP              0 ****  ****    0 ROOT
