@<TRIPOS>MOLECULE
A1A
   34    36     1     0     0
SMALL
No Charge or Current Charge


@<TRIPOS>ATOM
      1 C10         22.7820   -13.2260   -15.3230 ca         1 A1A      -0.108000
      2 C13         19.0690   -10.1050   -13.8410 c6         1 A1A      -0.098400
      3 C17         20.4370   -10.8850   -11.8450 c6         1 A1A      -0.098400
      4 C02         17.9910   -11.6300   -12.1020 c          1 A1A       0.538000
      5 C04         18.6200   -13.6800   -13.1500 c5         1 A1A       0.337200
      6 C06         20.4960   -12.8110   -14.5760 ca         1 A1A       0.218000
      7 C07         20.0690   -12.8040   -15.9160 ca         1 A1A      -0.108500
      8 C08         20.9940   -12.9960   -16.9580 ca         1 A1A      -0.108000
      9 C09         22.3520   -13.2040   -16.6610 ca         1 A1A      -0.106000
     10 C11         21.8540   -13.0340   -14.2840 ca         1 A1A      -0.108500
     11 C12         19.3120   -11.2980   -12.8610 c5         1 A1A       0.109200
     12 C14         20.3470    -9.5910   -14.5620 c6         1 A1A       0.156800
     13 C16         21.4100    -9.7860   -12.3540 c6         1 A1A       0.156800
     14 N03         17.6600   -12.9260   -12.3730 ns         1 A1A      -0.539900
     15 N05         19.5680   -12.6150   -13.5370 nh         1 A1A      -0.765400
     16 N15         21.5960    -9.8750   -13.8140 n7         1 A1A      -0.842400
     17 H101        23.8320   -13.3950   -15.0910 ha         1 A1A       0.117000
     18 H131        18.6410    -9.2700   -13.2710 hc         1 A1A       0.059200
     19 H132        18.3080   -10.3750   -14.5850 hc         1 A1A       0.059200
     20 H171        19.9830   -10.5190   -10.9140 hc         1 A1A       0.059200
     21 H172        21.0070   -11.7750   -11.5520 hc         1 A1A       0.059200
     22 H042        18.1520   -14.1350   -14.0330 h2         1 A1A       0.059200
     23 H041        19.1170   -14.4460   -12.5400 h2         1 A1A       0.059200
     24 H071        19.0200   -12.6400   -16.1460 ha         1 A1A       0.123000
     25 H081        20.6590   -12.9830   -17.9930 ha         1 A1A       0.117000
     26 H091        23.0690   -13.3520   -17.4660 ha         1 A1A       0.116000
     27 H111        22.1870   -13.0630   -13.2510 ha         1 A1A       0.123000
     28 H141        20.4210   -10.0490   -15.5590 h1         1 A1A       0.051950
     29 H142        20.2490    -8.5060   -14.7170 h1         1 A1A       0.051950
     30 H161        22.3790    -9.8920   -11.8430 h1         1 A1A       0.051950
     31 H162        21.0130    -8.7920   -12.0990 h1         1 A1A       0.051950
     32 H031        16.8210   -13.3090   -11.9590 hn         1 A1A       0.336500
     33 H1          21.8380   -10.8530   -14.0120 hn         1 A1A       0.415000
     34 O01         17.3010   -10.9050   -11.3980 o          1 A1A      -0.540000
@<TRIPOS>BOND
     1     1     9 ar  
     2     1    10 ar  
     3     1    17 1   
     4     2    11 1   
     5     2    12 1   
     6     2    18 1   
     7     2    19 1   
     8     3    11 1   
     9     3    13 1   
    10     3    20 1   
    11     3    21 1   
    12     4    11 1   
    13     4    14 1   
    14     4    34 2   
    15     5    14 1   
    16     5    15 1   
    17     5    22 1   
    18     5    23 1   
    19     6     7 ar  
    20     6    10 ar  
    21     6    15 1   
    22     7     8 ar  
    23     7    24 1   
    24     8     9 ar  
    25     8    25 1   
    26     9    26 1   
    27    10    27 1   
    28    11    15 1   
    29    12    16 1   
    30    12    28 1   
    31    12    29 1   
    32    13    16 1   
    33    13    30 1   
    34    13    31 1   
    35    14    32 1   
    36    16    33 1   
@<TRIPOS>SUBSTRUCTURE
     1 A1A         1 TEMP              0 ****  ****    0 ROOT
