@<TRIPOS>MOLECULE
A1A
   37    40     1     0     0
SMALL
No Charge or Current Charge


@<TRIPOS>ATOM
      1 N1         171.0600   191.2140   169.4180 ne         1 A1A      -0.369700
      2 N3         174.3290   188.7100   162.9070 nv         1 A1A      -1.084000
      3 C4         173.0960   190.6370   166.4200 ca         1 A1A      -0.195900
      4 C5         173.7410   191.3600   165.3910 ca         1 A1A      -0.032000
      5 C6         174.1600   190.7080   164.2180 ca         1 A1A      -0.196000
      6 C7         173.9220   189.3390   164.0490 ca         1 A1A       0.318000
      7 C8         173.2570   188.6190   165.0480 ca         1 A1A      -0.196000
      8 C10        173.4840   192.4010   168.2040 ca         1 A1A      -0.173900
      9 C13        173.8100   194.5260   169.4180 ca         1 A1A      -0.102000
     10 C15        177.3860   194.5900   169.2260 c5         1 A1A       0.374600
     11 C17        174.8960   192.2660   168.1110 ca         1 A1A      -0.061000
     12 C11        172.9510   193.5320   168.8930 ca         1 A1A      -0.059300
     13 C12        171.4560   193.6460   169.1290 c3         1 A1A      -0.121400
     14 C14        175.1880   194.3660   169.2590 ca         1 A1A       0.071100
     15 C16        175.7120   193.2730   168.6360 ca         1 A1A       0.044100
     16 C2         170.9790   192.4290   169.8990 c2         1 A1A       0.388300
     17 C3         172.6030   191.3210   167.6440 cf         1 A1A       0.504500
     18 C9         172.8340   189.2640   166.2230 ca         1 A1A      -0.032000
     19 N2         171.3770   191.0540   168.0510 ne         1 A1A      -0.380700
     20 O1         176.1460   195.2090   169.7230 os         1 A1A      -0.342100
     21 O2         177.0690   193.2840   168.6250 os         1 A1A      -0.340100
     22 H2         174.0100   187.7620   162.7150 hn         1 A1A       0.457500
     23 H3         174.6600   189.2610   162.1180 hn         1 A1A       0.457500
     24 H4         173.9150   192.4300   165.4920 ha         1 A1A       0.122500
     25 H5         174.6630   191.2750   163.4400 ha         1 A1A       0.114000
     26 H6         173.0600   187.5580   164.9180 ha         1 A1A       0.114000
     27 H7         173.4200   195.3900   169.9500 ha         1 A1A       0.136000
     28 H8         178.0920   194.4560   170.0540 h2         1 A1A       0.067200
     29 H9         177.8250   195.2380   168.4590 h2         1 A1A       0.067200
     30 H10        175.3570   191.3990   167.6420 ha         1 A1A       0.148000
     31 H11        170.3330   191.7300   171.8490 hc         1 A1A       0.055367
     32 H12        171.5480   193.0180   171.8990 hc         1 A1A       0.055367
     33 H13        169.8660   193.3960   171.4800 hc         1 A1A       0.055367
     34 H14        171.2110   194.5640   169.6780 hc         1 A1A       0.073200
     35 H15        170.9250   193.7270   168.1740 hc         1 A1A       0.073200
     36 H18        172.3130   188.6890   166.9880 ha         1 A1A       0.122500
     37 C1         170.6640   192.6540   171.3620 c3         1 A1A      -0.132400
@<TRIPOS>BOND
     1     1    16 2   
     2     1    19 1   
     3     2     6 1   
     4     2    22 1   
     5     2    23 1   
     6     3     4 ar  
     7     3    17 1   
     8     3    18 ar  
     9     4     5 ar  
    10     4    24 1   
    11     5     6 ar  
    12     5    25 1   
    13     6     7 ar  
    14     7    18 ar  
    15     7    26 1   
    16     8    11 ar  
    17     8    12 ar  
    18     8    17 1   
    19     9    12 ar  
    20     9    14 ar  
    21     9    27 1   
    22    10    20 1   
    23    10    21 1   
    24    10    28 1   
    25    10    29 1   
    26    11    15 ar  
    27    11    30 1   
    28    12    13 1   
    29    13    16 1   
    30    13    34 1   
    31    13    35 1   
    32    14    15 ar  
    33    14    20 1   
    34    15    21 1   
    35    16    37 1   
    36    17    19 2   
    37    18    36 1   
    38    31    37 1   
    39    32    37 1   
    40    33    37 1   
@<TRIPOS>SUBSTRUCTURE
     1 A1A         1 TEMP              0 ****  ****    0 ROOT
