@<TRIPOS>MOLECULE
A1A
   31    32     1     0     0
SMALL
No Charge or Current Charge


@<TRIPOS>ATOM
      1 C10         45.0180   -40.2270   -26.9560 ca         1 A1A      -0.062000
      2 C13         45.0810   -40.3830   -29.7720 ca         1 A1A      -0.242500
      3 C01         42.2330   -41.3750   -34.0680 c3         1 A1A      -0.105100
      4 C02         43.3600   -40.4550   -33.5550 c3         1 A1A       0.253500
      5 C03         43.1030   -38.9890   -33.9820 c3         1 A1A      -0.105100
      6 C05         42.5460   -40.0660   -31.1970 c6         1 A1A       0.250800
      7 C06         42.5500   -40.8080   -29.8370 c6         1 A1A       0.183600
      8 C08         43.8550   -40.5500   -29.0810 ca         1 A1A      -0.050300
      9 C09         43.8360   -40.4740   -27.6730 ca         1 A1A      -0.119000
     10 C11         46.2310   -40.0550   -27.6420 ca         1 A1A      -0.117000
     11 C12         46.2640   -40.1340   -29.0440 ca         1 A1A      -0.014000
     12 N04         43.5780   -40.6390   -32.1020 n3         1 A1A      -0.797500
     13 O07         42.4110   -42.2160   -30.0700 oh         1 A1A      -0.636000
     14 O15         45.7190   -39.2120   -32.0680 o          1 A1A      -0.540500
     15 O16         45.8500   -41.7620   -31.8930 o          1 A1A      -0.540500
     16 S14         45.1950   -40.4890   -31.5760 sy         1 A1A       1.190600
     17 H101        44.9940   -40.1680   -25.8700 ha         1 A1A       0.119000
     18 H013        42.4240   -42.4130   -33.7710 hc         1 A1A       0.045200
     19 H011        41.2570   -41.0760   -33.6720 hc         1 A1A       0.045200
     20 H012        42.1800   -41.3420   -35.1630 hc         1 A1A       0.045200
     21 H021        44.2650   -40.7830   -34.0880 h1         1 A1A       0.061700
     22 H031        43.9100   -38.3250   -33.6560 hc         1 A1A       0.045200
     23 H032        43.0390   -38.9190   -35.0740 hc         1 A1A       0.045200
     24 H033        42.1610   -38.6130   -33.5660 hc         1 A1A       0.045200
     25 H052        42.7200   -38.9920   -31.0320 h1         1 A1A       0.060200
     26 H051        41.5410   -40.1620   -31.6300 h1         1 A1A       0.060200
     27 H061        41.7100   -40.4350   -29.2320 h1         1 A1A       0.051700
     28 H091        42.9010   -40.6060   -27.1330 ha         1 A1A       0.113000
     29 H111        47.1460   -39.8630   -27.0870 ha         1 A1A       0.122000
     30 H121        47.2120   -40.0030   -29.5640 ha         1 A1A       0.140000
     31 H071        42.8940   -42.3560   -30.9170 ho         1 A1A       0.453000
@<TRIPOS>BOND
     1     1     9 ar  
     2     1    10 ar  
     3     1    17 1   
     4     2     8 ar  
     5     2    11 ar  
     6     2    16 1   
     7     3     4 1   
     8     3    18 1   
     9     3    19 1   
    10     3    20 1   
    11     4     5 1   
    12     4    12 1   
    13     4    21 1   
    14     5    22 1   
    15     5    23 1   
    16     5    24 1   
    17     6     7 1   
    18     6    12 1   
    19     6    25 1   
    20     6    26 1   
    21     7     8 1   
    22     7    13 1   
    23     7    27 1   
    24     8     9 ar  
    25     9    28 1   
    26    10    11 ar  
    27    10    29 1   
    28    11    30 1   
    29    12    16 1   
    30    13    31 1   
    31    14    16 2   
    32    15    16 2   
@<TRIPOS>SUBSTRUCTURE
     1 A1A         1 TEMP              0 ****  ****    0 ROOT
