@<TRIPOS>MOLECULE
A1A
   37    38     1     0     0
SMALL
abcg2


@<TRIPOS>ATOM
      1 C10        -27.4140    31.0530    -9.0490 ca         1 A1A      -0.003000
      2 C17        -27.2410    28.2210   -12.0980 c          1 A1A       0.564100
      3 C20        -25.9800    30.1810   -12.4290 c3         1 A1A       0.151900
      4 C01        -26.3160    24.4510    -9.4810 c3         1 A1A      -0.084100
      5 C02        -25.8440    25.5910    -8.5920 c3         1 A1A      -0.082400
      6 C03        -25.8640    26.9620    -9.2640 c6         1 A1A       0.233500
      7 C04        -25.2330    28.0190    -8.3170 c6         1 A1A       0.184600
      8 C06        -25.6290    29.4470    -8.6270 ca         1 A1A      -0.023300
      9 C07        -24.7090    30.4820    -8.6880 ca         1 A1A      -0.110000
     10 C08        -25.1340    31.7880    -8.9050 ca         1 A1A      -0.065000
     11 C09        -26.4800    32.0780    -9.0790 ca         1 A1A      -0.129000
     12 C11        -26.9730    29.7640    -8.8120 ca         1 A1A      -0.277500
     13 C16        -27.5600    27.1000   -11.1270 c3         1 A1A       0.164800
     14 N15        -27.2110    27.3110    -9.7390 n3         1 A1A      -0.751500
     15 O05        -23.8470    27.8250    -8.3920 oh         1 A1A      -0.644000
     16 O13        -28.2160    27.8770    -7.5070 o          1 A1A      -0.538000
     17 O14        -29.2680    28.7370    -9.6190 o          1 A1A      -0.538000
     18 O18        -27.7210    28.2780   -13.2010 o          1 A1A      -0.472000
     19 O19        -26.3670    29.0770   -11.6120 os         1 A1A      -0.441100
     20 S12        -28.0780    28.3950    -8.8580 sy         1 A1A       1.189600
     21 H101       -28.4630    31.2590    -9.2160 ha         1 A1A       0.137000
     22 H201       -25.2790    30.7580   -11.8330 h1         1 A1A       0.051033
     23 H202       -25.4920    29.8450   -13.3440 h1         1 A1A       0.051033
     24 H203       -26.8370    30.8030   -12.6840 h1         1 A1A       0.051033
     25 H012       -26.2050    23.4970    -8.9670 hc         1 A1A       0.035367
     26 H013       -27.3680    24.5530    -9.7500 hc         1 A1A       0.035367
     27 H011       -25.7340    24.3970   -10.4040 hc         1 A1A       0.035367
     28 H021       -26.4630    25.6370    -7.6910 hc         1 A1A       0.057700
     29 H022       -24.8230    25.3930    -8.2600 hc         1 A1A       0.057700
     30 H031       -25.2310    26.9460   -10.1560 h1         1 A1A       0.076700
     31 H041       -25.5910    27.8090    -7.3010 h1         1 A1A       0.071700
     32 H071       -23.6540    30.2780    -8.5660 ha         1 A1A       0.123000
     33 H081       -24.4030    32.5850    -8.9430 ha         1 A1A       0.116000
     34 H091       -26.8020    33.0960    -9.2510 ha         1 A1A       0.120000
     35 H162       -28.6150    26.8520   -11.2270 h1         1 A1A       0.097700
     36 H161       -27.0200    26.2170   -11.4730 h1         1 A1A       0.097700
     37 H051       -23.4610    27.9780    -7.5240 ho         1 A1A       0.455000
@<TRIPOS>BOND
     1     1    11 ar  
     2     1    12 ar  
     3     1    21 1   
     4     2    13 1   
     5     2    18 2   
     6     2    19 1   
     7     3    19 1   
     8     3    22 1   
     9     3    23 1   
    10     3    24 1   
    11     4     5 1   
    12     4    25 1   
    13     4    26 1   
    14     4    27 1   
    15     5     6 1   
    16     5    28 1   
    17     5    29 1   
    18     6     7 1   
    19     6    14 1   
    20     6    30 1   
    21     7     8 1   
    22     7    15 1   
    23     7    31 1   
    24     8     9 ar  
    25     8    12 ar  
    26     9    10 ar  
    27     9    32 1   
    28    10    11 ar  
    29    10    33 1   
    30    11    34 1   
    31    12    20 1   
    32    13    14 1   
    33    13    35 1   
    34    13    36 1   
    35    14    20 1   
    36    15    37 1   
    37    16    20 2   
    38    17    20 2   
@<TRIPOS>SUBSTRUCTURE
     1 A1A         1 TEMP              0 ****  ****    0 ROOT
