@<TRIPOS>MOLECULE
A1A
   25    26     1     0     0
SMALL
No Charge or Current Charge


@<TRIPOS>ATOM
      1 C10        -18.7340    60.1640   121.6160 ca         1 A1A       0.159000
      2 C13        -19.8260    58.3380   120.4380 ca         1 A1A      -0.103500
      3 C02        -22.5470    56.3280   116.3090 c5         1 A1A       0.053300
      4 C03        -23.1170    57.2700   117.4150 c5         1 A1A       0.122800
      5 C05        -20.9170    57.7450   117.5310 c2         1 A1A       0.700100
      6 C07        -19.4250    58.8820   119.2020 ca         1 A1A       0.280000
      7 C08        -18.6620    60.0650   119.1860 ca         1 A1A      -0.103500
      8 C09        -18.3190    60.7090   120.3910 ca         1 A1A      -0.133000
      9 C12        -19.4850    58.9790   121.6440 ca         1 A1A      -0.133000
     10 F11        -18.4040    60.7790   122.7720 f          1 A1A      -0.177000
     11 N04        -21.9780    57.7830   118.2440 n2         1 A1A      -0.664900
     12 N06        -19.7370    58.2510   117.9970 nu         1 A1A      -0.922200
     13 S14        -20.9460    57.1200   115.8850 ss         1 A1A      -0.395200
     14 H131       -20.3990    57.4150   120.4640 ha         1 A1A       0.128500
     15 H021       -23.2040    56.2990   115.4290 h1         1 A1A       0.088700
     16 H031       -23.8410    56.7320   118.0430 h1         1 A1A       0.069200
     17 H032       -23.6530    58.1180   116.9650 h1         1 A1A       0.069200
     18 H081       -18.3380    60.4910   118.2400 ha         1 A1A       0.128500
     19 H091       -17.7340    61.6250   120.3760 ha         1 A1A       0.134500
     20 H121       -19.7980    58.5570   122.5960 ha         1 A1A       0.134500
     21 H061       -19.0930    58.4480   117.2370 hn         1 A1A       0.510000
     22 C01        -22.2930    54.8790   116.7820 c3         1 A1A      -0.085100
     23 H013       -21.8350    54.2810   115.9850 hc         1 A1A       0.046367
     24 H011       -21.6250    54.8480   117.6510 hc         1 A1A       0.046367
     25 H012       -23.2330    54.3900   117.0650 hc         1 A1A       0.046367
@<TRIPOS>BOND
     1     1     8 ar  
     2     1     9 ar  
     3     1    10 1   
     4     2     6 ar  
     5     2     9 ar  
     6     2    14 1   
     7     3     4 1   
     8     3    13 1   
     9     3    15 1   
    10     3    22 1   
    11     4    11 1   
    12     4    16 1   
    13     4    17 1   
    14     5    11 2   
    15     5    12 1   
    16     5    13 1   
    17     6     7 ar  
    18     6    12 1   
    19     7     8 ar  
    20     7    18 1   
    21     8    19 1   
    22     9    20 1   
    23    12    21 1   
    24    22    23 1   
    25    22    24 1   
    26    22    25 1   
@<TRIPOS>SUBSTRUCTURE
     1 A1A         1 TEMP              0 ****  ****    0 ROOT
