@<TRIPOS>MOLECULE
A1A
   29    31     1     0     0
SMALL
abcg2


@<TRIPOS>ATOM
      1 C13         -6.0480    46.8500    99.7170 ca         1 A1A      -0.219600
      2 C15         -5.3140    48.6170    98.2490 ca         1 A1A      -0.167000
      3 C17         -7.6750    48.1770    98.5250 ca         1 A1A      -0.189000
      4 C02         -9.4270    45.2450   102.5810 ca         1 A1A       0.228000
      5 C03        -10.4060    44.8470   103.4670 ca         1 A1A      -0.165000
      6 C04        -11.1640    43.7290   103.1580 ca         1 A1A      -0.058000
      7 C05        -10.9390    43.0290   101.9850 ca         1 A1A      -0.132000
      8 C06         -9.9440    43.4590   101.1180 ca         1 A1A       0.158000
      9 C08         -9.1570    44.5780   101.3880 ca         1 A1A      -0.175300
     10 C09         -8.0750    45.0760   100.4600 c6         1 A1A       0.459200
     11 C11         -5.7320    45.8070   100.7140 c          1 A1A       0.592600
     12 C14         -5.0260    47.5960    99.1340 ca         1 A1A      -0.014000
     13 C16         -6.6470    48.9020    97.9540 ca         1 A1A      -0.046000
     14 C18         -7.3860    47.1340    99.4120 ca         1 A1A       0.332000
     15 N10         -6.7980    45.0910   101.1440 ns         1 A1A      -0.509900
     16 N19         -8.3850    46.4180   100.0250 nu         1 A1A      -0.938200
     17 O12         -4.6070    45.6260   101.1560 o          1 A1A      -0.555000
     18 CL07        -9.7160    42.5470    99.6620 cl         1 A1A      -0.189000
     19 H151        -4.5180    49.1910    97.7950 ha         1 A1A       0.120000
     20 H171        -8.7060    48.4070    98.2860 ha         1 A1A       0.115000
     21 H031       -10.5700    45.4040   104.3790 ha         1 A1A       0.142000
     22 H041       -11.9380    43.3990   103.8370 ha         1 A1A       0.127000
     23 H051       -11.5310    42.1580   101.7420 ha         1 A1A       0.138000
     24 H091        -8.0110    44.4030    99.5960 h2         1 A1A       0.043700
     25 H141        -3.9990    47.3680    99.3870 ha         1 A1A       0.135000
     26 H161        -6.8870    49.7010    97.2640 ha         1 A1A       0.112000
     27 H101        -6.6020    44.3120   101.7580 hn         1 A1A       0.324500
     28 H191        -9.3000    46.5060    99.6090 hn         1 A1A       0.478000
     29 F01         -8.7060    46.3250   102.8930 f          1 A1A      -0.146000
@<TRIPOS>BOND
     1     1    11 1   
     2     1    12 ar  
     3     1    14 ar  
     4     2    12 ar  
     5     2    13 ar  
     6     2    19 1   
     7     3    13 ar  
     8     3    14 ar  
     9     3    20 1   
    10     4     5 ar  
    11     4     9 ar  
    12     4    29 1   
    13     5     6 ar  
    14     5    21 1   
    15     6     7 ar  
    16     6    22 1   
    17     7     8 ar  
    18     7    23 1   
    19     8     9 ar  
    20     8    18 1   
    21     9    10 1   
    22    10    15 1   
    23    10    16 1   
    24    10    24 1   
    25    11    15 1   
    26    11    17 2   
    27    12    25 1   
    28    13    26 1   
    29    14    16 1   
    30    15    27 1   
    31    16    28 1   
@<TRIPOS>SUBSTRUCTURE
     1 A1A         1 TEMP              0 ****  ****    0 ROOT
