@<TRIPOS>MOLECULE
A1A
   23    24     1     0     0
SMALL
abcg2


@<TRIPOS>ATOM
      1 C10        -63.3170     6.3670    -6.7440 ca         1 A1A      -0.050000
      2 C15        -57.5780     8.6670    -8.6700 ca         1 A1A      -0.056500
      3 C03        -56.5450     8.9120    -7.7630 ca         1 A1A      -0.031000
      4 C04        -56.6050     8.3870    -6.4730 ca         1 A1A      -0.056500
      5 C05        -57.6990     7.6310    -6.0910 ca         1 A1A      -0.126000
      6 C06        -58.7230     7.3940    -6.9980 ca         1 A1A       0.151100
      7 C08        -61.0300     6.9710    -6.7170 ca         1 A1A       0.574300
      8 C09        -61.9970     5.9710    -6.6620 ca         1 A1A      -0.171000
      9 C11        -63.6210     7.7190    -6.8810 ca         1 A1A      -0.191000
     10 C12        -62.5710     8.6160    -6.9240 ca         1 A1A       0.373900
     11 C14        -58.6660     7.9080    -8.2890 ca         1 A1A      -0.126000
     12 N01        -54.5180    10.3390    -8.4760 n1         1 A1A      -0.454000
     13 N13        -61.2930     8.2490    -6.8380 nb         1 A1A      -0.729000
     14 O07        -59.7360     6.5760    -6.5980 os         1 A1A      -0.373400
     15 H101       -64.1060     5.6270    -6.7080 ha         1 A1A       0.124000
     16 H151       -57.5260     9.0680    -9.6740 ha         1 A1A       0.127500
     17 H041       -55.8060     8.5730    -5.7700 ha         1 A1A       0.127500
     18 H051       -57.7560     7.2210    -5.0910 ha         1 A1A       0.132500
     19 H091       -61.7190     4.9300    -6.5620 ha         1 A1A       0.141000
     20 H111       -64.6420     8.0640    -6.9530 ha         1 A1A       0.130000
     21 H121       -62.7560     9.6790    -7.0270 h4         1 A1A       0.024100
     22 H141       -59.4580     7.7110    -8.9990 ha         1 A1A       0.132500
     23 C02        -55.4230     9.7000    -8.1570 cg         1 A1A       0.326000
@<TRIPOS>BOND
     1     1     8 ar  
     2     1     9 ar  
     3     1    15 1   
     4     2     3 ar  
     5     2    11 ar  
     6     2    16 1   
     7     3     4 ar  
     8     3    23 1   
     9     4     5 ar  
    10     4    17 1   
    11     5     6 ar  
    12     5    18 1   
    13     6    11 ar  
    14     6    14 1   
    15     7     8 ar  
    16     7    13 ar  
    17     7    14 1   
    18     8    19 1   
    19     9    10 ar  
    20     9    20 1   
    21    10    13 ar  
    22    10    21 1   
    23    11    22 1   
    24    12    23 3   
@<TRIPOS>SUBSTRUCTURE
     1 A1A         1 TEMP              0 ****  ****    0 ROOT
