@<TRIPOS>MOLECULE
A1A
   22    22     1     0     0
SMALL
abcg2


@<TRIPOS>ATOM
      1 C10        -63.9080    22.2190   -11.3700 c          1 A1A       0.715600
      2 C01        -70.2750    19.8260   -10.1020 c3         1 A1A      -0.129100
      3 C02        -69.8000    20.4710    -8.8050 c3         1 A1A       0.216800
      4 C04        -67.3660    20.6770    -9.2080 ca         1 A1A       0.265000
      5 C05        -67.4770    21.7870   -10.0580 ca         1 A1A      -0.205500
      6 C06        -66.3680    22.2700   -10.7360 ca         1 A1A      -0.056000
      7 C07        -65.1120    21.6800   -10.6200 ca         1 A1A      -0.163600
      8 C08        -65.0120    20.5700    -9.7800 ca         1 A1A      -0.056000
      9 C09        -66.1030    20.0760    -9.0900 ca         1 A1A      -0.205500
     10 O11        -62.8330    21.6020   -11.2220 o          1 A1A      -0.728000
     11 O12        -64.0920    23.2370   -12.0700 o          1 A1A      -0.728000
     12 H013       -71.3240    20.0590   -10.2840 hc         1 A1A       0.034367
     13 H011       -69.7010    20.1800   -10.9600 hc         1 A1A       0.034367
     14 H012       -70.1760    18.7410   -10.0550 hc         1 A1A       0.034367
     15 H021       -69.9550    21.5510    -8.8420 h1         1 A1A       0.037200
     16 H022       -70.4070    20.1130    -7.9730 h1         1 A1A       0.037200
     17 H051       -68.4300    22.2830   -10.1930 ha         1 A1A       0.083500
     18 H061       -66.4890    23.1300   -11.3820 ha         1 A1A       0.122000
     19 H081       -64.0550    20.0780    -9.6650 ha         1 A1A       0.122000
     20 H091       -65.9860    19.2120    -8.4450 ha         1 A1A       0.083500
     21 H031       -68.2670    19.2810    -8.0760 hn         1 A1A       0.444000
     22 N03        -68.4200    20.1980    -8.4670 nu         1 A1A      -0.958200
@<TRIPOS>BOND
     1     1     7 1   
     2     1    10 1   
     3     1    11 1   
     4     2     3 1   
     5     2    12 1   
     6     2    13 1   
     7     2    14 1   
     8     3    15 1   
     9     3    16 1   
    10     3    22 1   
    11     4     5 ar  
    12     4     9 ar  
    13     4    22 1   
    14     5     6 ar  
    15     5    17 1   
    16     6     7 ar  
    17     6    18 1   
    18     7     8 ar  
    19     8     9 ar  
    20     8    19 1   
    21     9    20 1   
    22    21    22 1   
@<TRIPOS>SUBSTRUCTURE
     1 A1A         1 TEMP              0 ****  ****    0 ROOT
