@<TRIPOS>MOLECULE
A1A
   26    26     1     0     0
SMALL
abcg2


@<TRIPOS>ATOM
      1 C10         56.4710   -40.2390   -26.0880 ca         1 A1A      -0.101500
      2 C13         57.7280   -42.2910   -25.8400 ca         1 A1A      -0.101500
      3 C03         61.6870   -37.3540   -28.6910 cs         1 A1A       0.500400
      4 C06         60.3820   -39.4170   -28.1980 c3         1 A1A       0.114000
      5 C07         60.1520   -39.4770   -26.6790 c3         1 A1A      -0.058100
      6 C08         58.8850   -40.2180   -26.3510 ca         1 A1A      -0.081300
      7 C09         57.6550   -39.5570   -26.3430 ca         1 A1A      -0.096500
      8 C11         56.5230   -41.6030   -25.8390 ca         1 A1A       0.125000
      9 C14         58.9010   -41.5900   -26.0980 ca         1 A1A      -0.096500
     10 N01         63.2720   -35.5870   -29.1690 n8         1 A1A      -0.697200
     11 N02         62.9480   -36.9240   -28.9260 ns         1 A1A      -0.365300
     12 N05         61.5850   -38.6910   -28.5580 ns         1 A1A      -0.465900
     13 S04         60.3430   -36.3250   -28.5790 s          1 A1A      -0.627400
     14 CL12        55.0350   -42.4740   -25.5110 cl         1 A1A      -0.215000
     15 H101        55.5240   -39.7170   -26.0800 ha         1 A1A       0.131000
     16 H131        57.7520   -43.3530   -25.6410 ha         1 A1A       0.131000
     17 H061        59.5310   -38.9430   -28.6830 h1         1 A1A       0.072200
     18 H062        60.4810   -40.4270   -28.5970 h1         1 A1A       0.072200
     19 H071        61.0080   -39.9680   -26.2120 hc         1 A1A       0.061200
     20 H072        60.1020   -38.4560   -26.2990 hc         1 A1A       0.061200
     21 H091        57.6200   -38.4910   -26.5370 ha         1 A1A       0.122500
     22 H141        59.8440   -42.1220   -26.0980 ha         1 A1A       0.122500
     23 H011        64.0300   -35.3210   -28.5510 hn         1 A1A       0.409000
     24 H012        63.5930   -35.4900   -30.1280 hn         1 A1A       0.409000
     25 H021        63.6780   -37.6140   -29.0540 hn         1 A1A       0.283500
     26 H051        62.4380   -39.2320   -28.5790 hn         1 A1A       0.293500
@<TRIPOS>BOND
     1     1     7 ar  
     2     1     8 ar  
     3     1    15 1   
     4     2     8 ar  
     5     2     9 ar  
     6     2    16 1   
     7     3    11 1   
     8     3    12 1   
     9     3    13 2   
    10     4     5 1   
    11     4    12 1   
    12     4    17 1   
    13     4    18 1   
    14     5     6 1   
    15     5    19 1   
    16     5    20 1   
    17     6     7 ar  
    18     6     9 ar  
    19     7    21 1   
    20     8    14 1   
    21     9    22 1   
    22    10    11 1   
    23    10    23 1   
    24    10    24 1   
    25    11    25 1   
    26    12    26 1   
@<TRIPOS>SUBSTRUCTURE
     1 A1A         1 TEMP              0 ****  ****    0 ROOT
