@<TRIPOS>MOLECULE
A1A
   32    33     1     0     0
SMALL
No Charge or Current Charge


@<TRIPOS>ATOM
      1 C10         41.0310   -18.8940   -24.9030 c6         1 A1A       0.155800
      2 C13         38.7910   -17.5250   -23.6510 c6         1 A1A       0.118600
      3 C02         41.5330   -16.8830   -27.6480 c3         1 A1A       0.210900
      4 C03         42.4830   -16.4390   -26.5370 ca         1 A1A      -0.108300
      5 C04         43.6470   -15.7300   -26.8970 ca         1 A1A      -0.024000
      6 C05         44.5490   -15.2640   -25.9180 ca         1 A1A      -0.221300
      7 C06         44.2790   -15.5290   -24.5620 ca         1 A1A      -0.040000
      8 C07         43.1210   -16.2330   -24.1970 ca         1 A1A      -0.155000
      9 C08         42.2140   -16.6920   -25.1700 ca         1 A1A       0.306000
     10 C11         39.5760   -19.4490   -24.8670 c6         1 A1A       0.118600
     11 C14         40.2140   -16.8920   -23.6350 c6         1 A1A       0.155800
     12 F16         46.2620   -13.6750   -25.3620 f          1 A1A      -0.115667
     13 F17         45.6180   -13.7420   -27.4310 f          1 A1A      -0.115667
     14 F18         46.8250   -15.3570   -26.6180 f          1 A1A      -0.115667
     15 N09         41.0620   -17.4040   -24.7600 nh         1 A1A      -0.788400
     16 O01         42.1340   -17.9200   -28.4360 oh         1 A1A      -0.659000
     17 O12         38.8720   -18.9690   -23.6970 os         1 A1A      -0.443000
     18 H102        41.4990   -19.2010   -25.8500 h1         1 A1A       0.060200
     19 H101        41.6080   -19.3610   -24.0910 h1         1 A1A       0.060200
     20 H132        38.2380   -17.2230   -22.7510 h1         1 A1A       0.051700
     21 H131        38.2340   -17.1670   -24.5290 h1         1 A1A       0.051700
     22 H021        41.3100   -16.0140   -28.2810 h1         1 A1A       0.032700
     23 H022        40.5760   -17.2250   -27.2360 h1         1 A1A       0.032700
     24 H041        43.8460   -15.5450   -27.9510 ha         1 A1A       0.142000
     25 H061        44.9640   -15.1980   -23.7840 ha         1 A1A       0.130000
     26 H071        42.9340   -16.4350   -23.1470 ha         1 A1A       0.129000
     27 H111        39.0340   -19.1320   -25.7700 h1         1 A1A       0.051700
     28 H112        39.5960   -20.5480   -24.8510 h1         1 A1A       0.051700
     29 H141        40.6880   -17.1200   -22.6680 h1         1 A1A       0.060200
     30 H142        40.1120   -15.7990   -23.7010 h1         1 A1A       0.060200
     31 H011        41.4840   -18.1540   -29.1350 ho         1 A1A       0.446000
     32 C15         45.8150   -14.5060   -26.3320 c3         1 A1A       0.359300
@<TRIPOS>BOND
     1     1    10 1   
     2     1    15 1   
     3     1    18 1   
     4     1    19 1   
     5     2    11 1   
     6     2    17 1   
     7     2    20 1   
     8     2    21 1   
     9     3     4 1   
    10     3    16 1   
    11     3    22 1   
    12     3    23 1   
    13     4     5 ar  
    14     4     9 ar  
    15     5     6 ar  
    16     5    24 1   
    17     6     7 ar  
    18     6    32 1   
    19     7     8 ar  
    20     7    25 1   
    21     8     9 ar  
    22     8    26 1   
    23     9    15 1   
    24    10    17 1   
    25    10    27 1   
    26    10    28 1   
    27    11    15 1   
    28    11    29 1   
    29    11    30 1   
    30    12    32 1   
    31    13    32 1   
    32    14    32 1   
    33    16    31 1   
@<TRIPOS>SUBSTRUCTURE
     1 A1A         1 TEMP              0 ****  ****    0 ROOT
