@<TRIPOS>MOLECULE
A1A
   37    38     1     0     0
SMALL
No Charge or Current Charge


@<TRIPOS>ATOM
      1 C10        -27.6370    30.9890    -9.0950 ca         1 A1A      -0.003000
      2 C17        -27.2320    28.5510   -11.8180 c          1 A1A       0.564100
      3 C20        -25.3500    29.8750   -12.5430 c3         1 A1A       0.151900
      4 C01        -26.2130    24.3520    -9.5560 c3         1 A1A      -0.084100
      5 C02        -25.7800    25.5120    -8.6330 c3         1 A1A      -0.082400
      6 C03        -25.9590    26.9410    -9.2320 c6         1 A1A       0.233500
      7 C04        -25.3040    28.0300    -8.2890 c6         1 A1A       0.184600
      8 C06        -25.7730    29.4700    -8.6150 ca         1 A1A      -0.023300
      9 C07        -24.8800    30.5610    -8.7350 ca         1 A1A      -0.110000
     10 C08        -25.3630    31.8470    -9.0330 ca         1 A1A      -0.065000
     11 C09        -26.7380    32.0610    -9.2140 ca         1 A1A      -0.129000
     12 C11        -27.1530    29.7030    -8.7870 ca         1 A1A      -0.277500
     13 C16        -27.6350    27.2370   -11.0900 c3         1 A1A       0.164800
     14 N15        -27.4000    27.1580    -9.6050 n3         1 A1A      -0.751500
     15 O05        -23.8670    27.9180    -8.3130 oh         1 A1A      -0.644000
     16 O13        -28.3050    27.7760    -7.3210 o          1 A1A      -0.538000
     17 O14        -29.5080    28.6070    -9.4090 o          1 A1A      -0.538000
     18 O18        -28.0340    29.3850   -12.2210 o          1 A1A      -0.472000
     19 O19        -25.8700    28.6680   -11.9550 os         1 A1A      -0.441100
     20 S12        -28.2670    28.3040    -8.6890 sy         1 A1A       1.189600
     21 H101       -28.7020    31.1620    -9.2470 ha         1 A1A       0.137000
     22 H201       -24.2540    29.8370   -12.5840 h1         1 A1A       0.051033
     23 H202       -25.7250    30.0070   -13.5660 h1         1 A1A       0.051033
     24 H203       -25.6370    30.7530   -11.9500 h1         1 A1A       0.051033
     25 H012       -26.0000    23.3870    -9.0800 hc         1 A1A       0.035367
     26 H013       -27.2880    24.3950    -9.7650 hc         1 A1A       0.035367
     27 H011       -25.6710    24.3910   -10.5080 hc         1 A1A       0.035367
     28 H021       -26.3410    25.4360    -7.6940 hc         1 A1A       0.057700
     29 H022       -24.7270    25.3530    -8.3710 hc         1 A1A       0.057700
     30 H031       -25.3500    26.9470   -10.1480 h1         1 A1A       0.076700
     31 H041       -25.6520    27.8200    -7.2660 h1         1 A1A       0.071700
     32 H071       -23.8090    30.4270    -8.6090 ha         1 A1A       0.123000
     33 H081       -24.6680    32.6790    -9.1280 ha         1 A1A       0.116000
     34 H091       -27.1080    33.0560    -9.4510 ha         1 A1A       0.120000
     35 H162       -28.6980    27.0770   -11.3140 h1         1 A1A       0.097700
     36 H161       -27.0970    26.4280   -11.5990 h1         1 A1A       0.097700
     37 H051       -23.5290    28.4420    -7.5540 ho         1 A1A       0.455000
@<TRIPOS>BOND
     1     1    11 ar  
     2     1    12 ar  
     3     1    21 1   
     4     2    13 1   
     5     2    18 2   
     6     2    19 1   
     7     3    19 1   
     8     3    22 1   
     9     3    23 1   
    10     3    24 1   
    11     4     5 1   
    12     4    25 1   
    13     4    26 1   
    14     4    27 1   
    15     5     6 1   
    16     5    28 1   
    17     5    29 1   
    18     6     7 1   
    19     6    14 1   
    20     6    30 1   
    21     7     8 1   
    22     7    15 1   
    23     7    31 1   
    24     8     9 ar  
    25     8    12 ar  
    26     9    10 ar  
    27     9    32 1   
    28    10    11 ar  
    29    10    33 1   
    30    11    34 1   
    31    12    20 1   
    32    13    14 1   
    33    13    35 1   
    34    13    36 1   
    35    14    20 1   
    36    15    37 1   
    37    16    20 2   
    38    17    20 2   
@<TRIPOS>SUBSTRUCTURE
     1 A1A         1 TEMP              0 ****  ****    0 ROOT
