@<TRIPOS>MOLECULE
A1A
   23    24     1     0     0
SMALL
No Charge or Current Charge


@<TRIPOS>ATOM
      1 C10        -63.3590     6.3100    -6.8990 ca         1 A1A      -0.050000
      2 C15        -57.5820     8.6710    -8.6470 ca         1 A1A      -0.056500
      3 C03        -56.4720     8.8920    -7.8070 ca         1 A1A      -0.031000
      4 C04        -56.4730     8.3730    -6.4970 ca         1 A1A      -0.056500
      5 C05        -57.5800     7.6420    -6.0300 ca         1 A1A      -0.126000
      6 C06        -58.6930     7.4360    -6.8620 ca         1 A1A       0.151100
      7 C08        -61.0640     7.0380    -6.6000 ca         1 A1A       0.574300
      8 C09        -62.0040     6.0000    -6.7030 ca         1 A1A      -0.171000
      9 C11        -63.7150     7.6650    -6.9750 ca         1 A1A      -0.191000
     10 C12        -62.7160     8.6440    -6.8500 ca         1 A1A       0.373900
     11 C14        -58.6880     7.9400    -8.1770 ca         1 A1A      -0.126000
     12 N01        -54.4180    10.2370    -8.6780 n1         1 A1A      -0.454000
     13 N13        -61.4110     8.3450    -6.6610 nb         1 A1A      -0.729000
     14 O07        -59.7500     6.6950    -6.3860 os         1 A1A      -0.373400
     15 H101       -64.1080     5.5250    -6.9870 ha         1 A1A       0.124000
     16 H151       -57.5880     9.0620    -9.6630 ha         1 A1A       0.127500
     17 H041       -55.6180     8.5320    -5.8420 ha         1 A1A       0.127500
     18 H051       -57.5790     7.2380    -5.0210 ha         1 A1A       0.132500
     19 H091       -61.6760     4.9680    -6.6340 ha         1 A1A       0.141000
     20 H111       -64.7500     7.9600    -7.1250 ha         1 A1A       0.130000
     21 H121       -62.9690     9.7030    -6.9010 h4         1 A1A       0.024100
     22 H141       -59.5360     7.7650    -8.8340 ha         1 A1A       0.132500
     23 C02        -55.3420     9.6390    -8.2870 cg         1 A1A       0.326000
@<TRIPOS>BOND
     1     1     8 ar  
     2     1     9 ar  
     3     1    15 1   
     4     2     3 ar  
     5     2    11 ar  
     6     2    16 1   
     7     3     4 ar  
     8     3    23 1   
     9     4     5 ar  
    10     4    17 1   
    11     5     6 ar  
    12     5    18 1   
    13     6    11 ar  
    14     6    14 1   
    15     7     8 ar  
    16     7    13 ar  
    17     7    14 1   
    18     8    19 1   
    19     9    10 ar  
    20     9    20 1   
    21    10    13 ar  
    22    10    21 1   
    23    11    22 1   
    24    12    23 3   
@<TRIPOS>SUBSTRUCTURE
     1 A1A         1 TEMP              0 ****  ****    0 ROOT
