@<TRIPOS>MOLECULE
A1A
   36    37     1     0     0
SMALL
No Charge or Current Charge


@<TRIPOS>ATOM
      1 C10        -53.0090    25.0680    -6.5460 ca         1 A1A      -0.109000
      2 C13        -53.7340    30.3730    -6.9220 c3         1 A1A       0.128300
      3 C15        -53.0210    32.8060    -7.1880 ca         1 A1A      -0.072000
      4 C17        -54.4210    34.2940    -8.4910 ca         1 A1A       0.340900
      5 C01        -55.0630    32.1140    -3.3430 c3         1 A1A       0.100300
      6 C03        -55.4380    30.2730    -5.0330 cs         1 A1A       0.473400
      7 C06        -55.5000    28.6100    -6.9110 c3         1 A1A       0.146300
      8 C07        -54.6290    27.3650    -6.7860 ca         1 A1A      -0.098300
      9 C08        -53.9630    26.8430    -7.9130 ca         1 A1A      -0.099500
     10 C09        -53.1550    25.6980    -7.7930 ca         1 A1A      -0.107500
     11 C11        -53.6700    25.5830    -5.4180 ca         1 A1A      -0.107500
     12 C12        -54.4780    26.7280    -5.5380 ca         1 A1A      -0.099500
     13 C14        -53.9460    31.7810    -7.4630 ca         1 A1A      -0.178300
     14 C16        -53.2710    34.0840    -7.7130 ca         1 A1A      -0.160000
     15 C19        -55.0710    32.0820    -8.2580 ca         1 A1A       0.347900
     16 N02        -54.7710    31.3760    -4.5730 ns         1 A1A      -0.447900
     17 N05        -54.9240    29.7990    -6.2340 n          1 A1A      -0.366800
     18 N18        -55.3120    33.3130    -8.7660 nb         1 A1A      -0.658000
     19 S04        -56.7330    29.6230    -4.1920 s          1 A1A      -0.665400
     20 H101       -52.3840    24.1820    -6.4530 ha         1 A1A       0.113000
     21 H132       -53.4450    29.7260    -7.7610 h1         1 A1A       0.067200
     22 H131       -52.8870    30.3620    -6.2230 h1         1 A1A       0.067200
     23 H151       -52.1320    32.6200    -6.5870 ha         1 A1A       0.119000
     24 H171       -54.6350    35.2770    -8.9100 h4         1 A1A       0.024100
     25 H012       -54.3590    32.9500    -3.2410 h1         1 A1A       0.054033
     26 H013       -56.0860    32.5080    -3.3820 h1         1 A1A       0.054033
     27 H011       -54.9590    31.4470    -2.4780 h1         1 A1A       0.054033
     28 H062       -55.6420    28.8490    -7.9740 h1         1 A1A       0.081200
     29 H061       -56.4990    28.3850    -6.5190 h1         1 A1A       0.081200
     30 H081       -54.0680    27.3230    -8.8840 ha         1 A1A       0.112000
     31 H091       -52.6440    25.3000    -8.6660 ha         1 A1A       0.112500
     32 H111       -53.5580    25.0970    -4.4520 ha         1 A1A       0.112500
     33 H121       -54.9850    27.1210    -4.6600 ha         1 A1A       0.112000
     34 H161       -52.5850    34.9050    -7.5250 ha         1 A1A       0.128000
     35 H191       -55.8060    31.3130    -8.4960 h4         1 A1A       0.031100
     36 H021       -54.0300    31.7300    -5.1640 hn         1 A1A       0.310500
@<TRIPOS>BOND
     1     1    10 ar  
     2     1    11 ar  
     3     1    20 1   
     4     2    13 1   
     5     2    17 1   
     6     2    21 1   
     7     2    22 1   
     8     3    13 ar  
     9     3    14 ar  
    10     3    23 1   
    11     4    14 ar  
    12     4    18 ar  
    13     4    24 1   
    14     5    16 1   
    15     5    25 1   
    16     5    26 1   
    17     5    27 1   
    18     6    16 1   
    19     6    17 1   
    20     6    19 2   
    21     7     8 1   
    22     7    17 1   
    23     7    28 1   
    24     7    29 1   
    25     8     9 ar  
    26     8    12 ar  
    27     9    10 ar  
    28     9    30 1   
    29    10    31 1   
    30    11    12 ar  
    31    11    32 1   
    32    12    33 1   
    33    13    15 ar  
    34    14    34 1   
    35    15    18 ar  
    36    15    35 1   
    37    16    36 1   
@<TRIPOS>SUBSTRUCTURE
     1 A1A         1 TEMP              0 ****  ****    0 ROOT
