@<TRIPOS>MOLECULE
A1A
   40    42     1     0     0
SMALL
abcg2


@<TRIPOS>ATOM
      1 C10        -52.9380    31.0610   -10.1330 ca         1 A1A      -0.044000
      2 C15        -56.4390    28.2660    -4.8190 c6         1 A1A      -0.085400
      3 C17        -58.4740    28.8490    -6.1210 c6         1 A1A      -0.087400
      4 C01        -59.4000    31.4320    -4.3440 c3         1 A1A      -0.176100
      5 C05        -55.7160    30.7990    -4.9890 c6         1 A1A       0.091000
      6 C06        -54.9900    29.9130    -5.9940 c6         1 A1A       0.181300
      7 C08        -53.9760    30.4280    -8.0880 ca         1 A1A       0.603300
      8 C09        -53.9940    31.1960    -9.2600 ca         1 A1A      -0.176000
      9 C11        -51.9010    30.1790    -9.8290 ca         1 A1A      -0.208000
     10 C12        -51.9880    29.4730    -8.6470 ca         1 A1A       0.374900
     11 C14        -55.5590    28.4750    -6.0530 c6         1 A1A      -0.109700
     12 C16        -57.6390    29.2080    -4.8890 c6         1 A1A       0.121700
     13 C18        -57.6610    28.9290    -7.4060 c6         1 A1A      -0.070400
     14 C19        -56.3980    28.0930    -7.2850 c6         1 A1A       0.190300
     15 N04        -57.1560    30.5970    -4.9240 n          1 A1A      -0.404800
     16 N13        -53.0050    29.5900    -7.7920 nb         1 A1A      -0.780000
     17 O03        -57.4690    32.7980    -4.5280 o          1 A1A      -0.606100
     18 O07        -54.9980    30.5930    -7.2480 os         1 A1A      -0.447300
     19 O20        -55.7020    28.1420    -8.5080 oh         1 A1A      -0.651000
     20 H101       -52.9170    31.6380   -11.0490 ha         1 A1A       0.120000
     21 H152       -56.8130    27.2400    -4.7920 hc         1 A1A       0.052700
     22 H151       -55.8720    28.4050    -3.8970 hc         1 A1A       0.052700
     23 H172       -59.3570    29.4820    -6.2000 hc         1 A1A       0.045200
     24 H171       -58.8460    27.8300    -5.9790 hc         1 A1A       0.045200
     25 H012       -59.8230    32.3360    -3.9140 hc         1 A1A       0.059367
     26 H013       -59.9380    31.2190    -5.2670 hc         1 A1A       0.059367
     27 H011       -59.5870    30.6050    -3.6600 hc         1 A1A       0.059367
     28 H051       -55.2770    30.6160    -4.0040 h1         1 A1A       0.067700
     29 H052       -55.5140    31.8400    -5.2250 h1         1 A1A       0.067700
     30 H061       -53.9580    29.8520    -5.6420 h1         1 A1A       0.068700
     31 H091       -54.8140    31.8730    -9.4600 ha         1 A1A       0.139000
     32 H111       -51.0560    30.0470   -10.4900 ha         1 A1A       0.125000
     33 H121       -51.2090    28.7730    -8.3660 h4         1 A1A       0.014100
     34 H141       -54.7160    27.7780    -6.0090 hc         1 A1A       0.060700
     35 H161       -58.2460    29.0590    -3.9920 h1         1 A1A       0.047700
     36 H182       -57.4140    29.9690    -7.6290 hc         1 A1A       0.064700
     37 H181       -58.2610    28.5610    -8.2410 hc         1 A1A       0.064700
     38 H191       -56.7190    27.0560    -7.0900 h1         1 A1A       0.016700
     39 H201       -54.8840    27.6430    -8.4130 ho         1 A1A       0.447000
     40 C02        -57.9310    31.6660    -4.6060 c          1 A1A       0.604100
@<TRIPOS>BOND
     1     1     8 ar  
     2     1     9 ar  
     3     1    20 1   
     4     2    11 1   
     5     2    12 1   
     6     2    21 1   
     7     2    22 1   
     8     3    12 1   
     9     3    13 1   
    10     3    23 1   
    11     3    24 1   
    12     4    25 1   
    13     4    26 1   
    14     4    27 1   
    15     4    40 1   
    16     5     6 1   
    17     5    15 1   
    18     5    28 1   
    19     5    29 1   
    20     6    11 1   
    21     6    18 1   
    22     6    30 1   
    23     7     8 ar  
    24     7    16 ar  
    25     7    18 1   
    26     8    31 1   
    27     9    10 ar  
    28     9    32 1   
    29    10    16 ar  
    30    10    33 1   
    31    11    14 1   
    32    11    34 1   
    33    12    15 1   
    34    12    35 1   
    35    13    14 1   
    36    13    36 1   
    37    13    37 1   
    38    14    19 1   
    39    14    38 1   
    40    15    40 1   
    41    17    40 2   
    42    19    39 1   
@<TRIPOS>SUBSTRUCTURE
     1 A1A         1 TEMP              0 ****  ****    0 ROOT
