@<TRIPOS>MOLECULE
A1A
   35    38     1     0     0
SMALL
abcg2


@<TRIPOS>ATOM
      1 C10        -26.2800    20.0780    12.0870 c          1 A1A       0.558000
      2 C13        -21.8030    20.1120    11.9470 ca         1 A1A      -0.175300
      3 C15        -19.9800    20.5630    13.4850 ca         1 A1A      -0.162000
      4 C17        -20.3690    22.0200    11.6010 ca         1 A1A      -0.186000
      5 C03        -23.4740    20.9950     9.8510 c6         1 A1A       0.219800
      6 C04        -23.5000    19.5080    10.1640 c5         1 A1A      -0.117700
      7 C05        -24.9300    18.9850    10.2700 c5         1 A1A       0.098000
      8 C08        -24.3050    20.5500    13.2890 c5         1 A1A       0.124800
      9 C09        -25.8210    20.6060    13.4320 c5         1 A1A      -0.172400
     10 C12        -22.9550    19.2320    11.5660 c5         1 A1A       0.201800
     11 C14        -21.0550    19.7910    13.0730 ca         1 A1A      -0.054000
     12 C16        -19.6480    21.6830    12.7340 ca         1 A1A      -0.061000
     13 C18        -21.4570    21.2390    11.1720 ca         1 A1A       0.335000
     14 N02        -22.1460    21.5400    10.0200 nh         1 A1A      -0.809400
     15 N06        -25.2690    19.3200    11.6310 n          1 A1A      -0.288200
     16 N07        -24.1210    19.3420    12.4780 n3         1 A1A      -0.432600
     17 O11        -27.3410    20.2700    11.5180 o          1 A1A      -0.540000
     18 H151       -19.4140    20.2940    14.3670 ha         1 A1A       0.117000
     19 H171       -20.0790    22.9050    11.0530 ha         1 A1A       0.114000
     20 H012       -20.8140    22.8350     9.0410 h1         1 A1A       0.038367
     21 H013       -22.4470    22.7920     8.4020 h1         1 A1A       0.038367
     22 H011       -22.1180    23.6660     9.9020 h1         1 A1A       0.038367
     23 H032       -24.2080    21.5320    10.4700 h1         1 A1A       0.043200
     24 H031       -23.7760    21.1450     8.8140 h1         1 A1A       0.043200
     25 H041       -22.9270    18.9650     9.4110 hc         1 A1A       0.085700
     26 H052       -25.6290    19.4640     9.5840 h1         1 A1A       0.070200
     27 H051       -24.9710    17.9060    10.1040 h1         1 A1A       0.070200
     28 H081       -23.7800    20.4560    14.2370 h1         1 A1A       0.059700
     29 H082       -23.9500    21.4590    12.7890 h1         1 A1A       0.059700
     30 H092       -26.2060    21.6070    13.6190 hc         1 A1A       0.082200
     31 H091       -26.1810    19.9480    14.2280 hc         1 A1A       0.082200
     32 H121       -22.6210    18.1910    11.6080 h1         1 A1A       0.088700
     33 H141       -21.3310    18.9070    13.6380 ha         1 A1A       0.116000
     34 H161       -18.8170    22.3090    13.0320 ha         1 A1A       0.110000
     35 C01        -21.8660    22.7710     9.3220 c3         1 A1A       0.204100
@<TRIPOS>BOND
     1     1     9 1   
     2     1    15 1   
     3     1    17 2   
     4     2    10 1   
     5     2    11 ar  
     6     2    13 ar  
     7     3    11 ar  
     8     3    12 ar  
     9     3    18 1   
    10     4    12 ar  
    11     4    13 ar  
    12     4    19 1   
    13     5     6 1   
    14     5    14 1   
    15     5    23 1   
    16     5    24 1   
    17     6     7 1   
    18     6    10 1   
    19     6    25 1   
    20     7    15 1   
    21     7    26 1   
    22     7    27 1   
    23     8     9 1   
    24     8    16 1   
    25     8    28 1   
    26     8    29 1   
    27     9    30 1   
    28     9    31 1   
    29    10    16 1   
    30    10    32 1   
    31    11    33 1   
    32    12    34 1   
    33    13    14 1   
    34    14    35 1   
    35    15    16 1   
    36    20    35 1   
    37    21    35 1   
    38    22    35 1   
@<TRIPOS>SUBSTRUCTURE
     1 A1A         1 TEMP              0 ****  ****    0 ROOT
