@<TRIPOS>MOLECULE
A1A
   47    50     1     0     0
SMALL
No Charge or Current Charge


@<TRIPOS>ATOM
      1 C10        -17.9930     9.0370     1.4540 c3         1 A1A       0.196800
      2 C13        -15.4280     9.5010     1.9030 cx         1 A1A      -0.126400
      3 C15        -21.2020     9.4620    -0.6930 c5         1 A1A       0.181500
      4 C17        -23.3440    10.6230    -1.3820 ca         1 A1A      -0.084300
      5 C20        -24.5380    12.3860    -3.2510 ca         1 A1A      -0.109000
      6 C21        -23.7940    11.2840    -3.6990 ca         1 A1A      -0.113000
      7 C22        -23.2020    10.4090    -2.7730 ca         1 A1A      -0.104500
      8 C02        -24.2400     7.9150     0.7290 c          1 A1A       0.610100
      9 C04        -23.3690     8.2630    -0.4940 c5         1 A1A      -0.150700
     10 C05        -22.1460     7.3130    -0.5150 c5         1 A1A       0.173800
     11 C07        -19.8660     7.5460    -1.5970 c6         1 A1A       0.174800
     12 C08        -18.9590     7.5850    -0.3280 c6         1 A1A       0.125800
     13 C11        -16.5190     8.7680     1.1550 cx         1 A1A      -0.125700
     14 C12        -15.6690     9.7930     0.4400 cx         1 A1A      -0.126400
     15 C14        -20.2620     9.4600     0.5730 c6         1 A1A       0.130800
     16 C16        -22.7140     9.6880    -0.3350 c5         1 A1A      -0.013400
     17 C18        -24.0970    11.7340    -0.9470 ca         1 A1A      -0.104500
     18 C19        -24.6900    12.6100    -1.8730 ca         1 A1A      -0.113000
     19 N01        -25.5090     7.5670     0.4280 nt         1 A1A      -0.606000
     20 N06        -21.2210     8.1130    -1.3450 n3         1 A1A      -0.728600
     21 N09        -18.8850     8.9540     0.2740 n3         1 A1A      -0.709600
     22 O03        -23.8830     7.9330     1.8960 o          1 A1A      -0.611100
     23 H101       -18.0690    10.0420     1.8910 h1         1 A1A       0.033200
     24 H102       -18.3270     8.3320     2.2280 h1         1 A1A       0.033200
     25 H132       -14.5330     8.9440     2.1680 hc         1 A1A       0.071200
     26 H131       -15.7210    10.2610     2.6250 hc         1 A1A       0.071200
     27 H151       -20.8220    10.2350    -1.3770 h1         1 A1A       0.084700
     28 H201       -24.9960    13.0640    -3.9670 ha         1 A1A       0.113000
     29 H211       -23.6760    11.1060    -4.7660 ha         1 A1A       0.113500
     30 H221       -22.6340     9.5580    -3.1420 ha         1 A1A       0.119500
     31 H041       -23.9500     8.1620    -1.4170 hc         1 A1A       0.071700
     32 H051       -22.3870     6.3430    -0.9720 h1         1 A1A       0.052700
     33 H052       -21.7440     7.1220     0.4910 h1         1 A1A       0.052700
     34 H072       -19.9400     6.5110    -1.9620 h1         1 A1A       0.057700
     35 H071       -19.3690     8.1270    -2.3870 h1         1 A1A       0.057700
     36 H081       -19.3480     6.8680     0.4100 h1         1 A1A       0.037200
     37 H082       -17.9590     7.2340    -0.6190 h1         1 A1A       0.037200
     38 H111       -16.3230     7.7240     0.9260 hc         1 A1A       0.074700
     39 H122       -14.9380     9.4310    -0.2780 hc         1 A1A       0.071200
     40 H121       -16.1290    10.7440     0.1810 hc         1 A1A       0.071200
     41 H142       -20.2100    10.4870     0.9620 h1         1 A1A       0.040200
     42 H141       -20.7180     8.8510     1.3690 h1         1 A1A       0.040200
     43 H161       -22.8150    10.0890     0.6810 hc         1 A1A       0.066700
     44 H181       -24.2260    11.9210     0.1170 ha         1 A1A       0.119500
     45 H191       -25.2670    13.4630    -1.5220 ha         1 A1A       0.113500
     46 H011       -26.1440     7.3270     1.1730 hn         1 A1A       0.315000
     47 H012       -25.8160     7.5560    -0.5340 hn         1 A1A       0.315000
@<TRIPOS>BOND
     1     1    13 1   
     2     1    21 1   
     3     1    23 1   
     4     1    24 1   
     5     2    13 1   
     6     2    14 1   
     7     2    25 1   
     8     2    26 1   
     9     3    15 1   
    10     3    16 1   
    11     3    20 1   
    12     3    27 1   
    13     4     7 ar  
    14     4    16 1   
    15     4    17 ar  
    16     5     6 ar  
    17     5    18 ar  
    18     5    28 1   
    19     6     7 ar  
    20     6    29 1   
    21     7    30 1   
    22     8     9 1   
    23     8    19 1   
    24     8    22 2   
    25     9    10 1   
    26     9    16 1   
    27     9    31 1   
    28    10    20 1   
    29    10    32 1   
    30    10    33 1   
    31    11    12 1   
    32    11    20 1   
    33    11    34 1   
    34    11    35 1   
    35    12    21 1   
    36    12    36 1   
    37    12    37 1   
    38    13    14 1   
    39    13    38 1   
    40    14    39 1   
    41    14    40 1   
    42    15    21 1   
    43    15    41 1   
    44    15    42 1   
    45    16    43 1   
    46    17    18 ar  
    47    17    44 1   
    48    18    45 1   
    49    19    46 1   
    50    19    47 1   
@<TRIPOS>SUBSTRUCTURE
     1 A1A         1 TEMP              0 ****  ****    0 ROOT
