@<TRIPOS>MOLECULE
A1A
   40    42     1     0     0
SMALL
abcg2


@<TRIPOS>ATOM
      1 C10        -54.3430    30.2940    -4.1420 c5         1 A1A       0.158300
      2 C13        -53.1180    33.0640    -6.0150 ca         1 A1A      -0.089300
      3 C15        -53.1500    33.2310    -7.3990 ca         1 A1A      -0.076000
      4 C17        -53.9930    30.9950    -7.7560 ca         1 A1A      -0.050000
      5 C21        -54.6990    27.3300    -7.2560 c3         1 A1A      -0.178100
      6 C01        -58.2080    32.4940    -0.7770 c3         1 A1A      -0.122100
      7 C02        -58.1740    31.0280    -1.1490 c3         1 A1A       0.166600
      8 C06        -55.8350    30.5800    -3.9720 c5         1 A1A      -0.174700
      9 C07        -56.5450    29.4280    -4.6890 c5         1 A1A       0.119000
     10 C09        -54.2750    29.6080    -5.5170 c5         1 A1A       0.142000
     11 C12        -53.5360    31.8240    -5.5520 ca         1 A1A       0.110100
     12 C14        -52.6740    34.1440    -5.0780 c3         1 A1A      -0.036800
     13 C16        -53.5830    32.2260    -8.2590 ca         1 A1A      -0.140000
     14 C18        -53.9620    30.8020    -6.3870 ca         1 A1A      -0.186300
     15 N08        -55.5680    28.9790    -5.6720 n          1 A1A      -0.415800
     16 O11        -53.5810    31.4910    -4.2360 os         1 A1A      -0.307100
     17 O20        -56.9380    27.3740    -6.4180 o          1 A1A      -0.593100
     18 H101       -53.9390    29.6860    -3.3330 h1         1 A1A       0.110700
     19 H151       -52.8350    34.1810    -7.8130 ha         1 A1A       0.115000
     20 H171       -54.3360    30.2200    -8.4290 ha         1 A1A       0.118000
     21 H211       -55.0940    26.6170    -7.9750 hc         1 A1A       0.062700
     22 H212       -54.1340    28.0890    -7.7940 hc         1 A1A       0.062700
     23 H213       -53.9950    26.8040    -6.6080 hc         1 A1A       0.062700
     24 H011       -58.7440    32.6080     0.1650 hc         1 A1A       0.049367
     25 H012       -57.2090    32.9060    -0.6420 hc         1 A1A       0.049367
     26 H013       -58.7300    33.0820    -1.5310 hc         1 A1A       0.049367
     27 H022       -59.1840    30.6320    -1.2460 h1         1 A1A       0.060700
     28 H021       -57.6530    30.4380    -0.3940 h1         1 A1A       0.060700
     29 H061       -56.0740    31.5120    -4.4990 hc         1 A1A       0.102700
     30 H071       -57.4700    29.7560    -5.1610 h1         1 A1A       0.068700
     31 H072       -56.7910    28.6100    -4.0060 h1         1 A1A       0.068700
     32 H091       -53.4740    28.8670    -5.5730 h1         1 A1A       0.082700
     33 H141       -53.4520    34.3880    -4.3520 hc         1 A1A       0.046700
     34 H142       -51.7900    33.8470    -4.5120 hc         1 A1A       0.046700
     35 H143       -52.4290    35.0540    -5.6230 hc         1 A1A       0.046700
     36 H161       -53.6020    32.4060    -9.3250 ha         1 A1A       0.118000
     37 C04        -56.2600    30.7700    -2.5380 c          1 A1A       0.606100
     38 C19        -55.8310    27.8910    -6.4330 c          1 A1A       0.609100
     39 O03        -57.5780    30.8140    -2.4410 os         1 A1A      -0.447100
     40 O05        -55.5000    30.8820    -1.6110 o          1 A1A      -0.476000
@<TRIPOS>BOND
     1     1     8 1   
     2     1    10 1   
     3     1    16 1   
     4     1    18 1   
     5     2     3 ar  
     6     2    11 ar  
     7     2    12 1   
     8     3    13 ar  
     9     3    19 1   
    10     4    13 ar  
    11     4    14 ar  
    12     4    20 1   
    13     5    21 1   
    14     5    22 1   
    15     5    23 1   
    16     5    38 1   
    17     6     7 1   
    18     6    24 1   
    19     6    25 1   
    20     6    26 1   
    21     7    27 1   
    22     7    28 1   
    23     7    39 1   
    24     8     9 1   
    25     8    29 1   
    26     8    37 1   
    27     9    15 1   
    28     9    30 1   
    29     9    31 1   
    30    10    14 1   
    31    10    15 1   
    32    10    32 1   
    33    11    14 ar  
    34    11    16 1   
    35    12    33 1   
    36    12    34 1   
    37    12    35 1   
    38    13    36 1   
    39    15    38 1   
    40    17    38 2   
    41    37    39 1   
    42    37    40 2   
@<TRIPOS>SUBSTRUCTURE
     1 A1A         1 TEMP              0 ****  ****    0 ROOT
