@<TRIPOS>MOLECULE
A1A
   31    32     1     0     0
SMALL
abcg2


@<TRIPOS>ATOM
      1 C10         45.0510   -40.3580   -27.0960 ca         1 A1A      -0.062000
      2 C13         45.0660   -40.3890   -29.8530 ca         1 A1A      -0.242500
      3 C01         42.4890   -41.4170   -33.8790 c3         1 A1A      -0.105100
      4 C02         43.3920   -40.2390   -33.5420 c3         1 A1A       0.253500
      5 C03         42.8450   -38.9180   -34.0650 c3         1 A1A      -0.105100
      6 C05         42.5820   -39.8580   -31.1620 c6         1 A1A       0.250800
      7 C06         42.5860   -40.7850   -29.9610 c6         1 A1A       0.183600
      8 C08         43.8610   -40.5780   -29.1840 ca         1 A1A      -0.050300
      9 C09         43.8690   -40.5560   -27.7960 ca         1 A1A      -0.119000
     10 C11         46.2420   -40.1660   -27.7820 ca         1 A1A      -0.117000
     11 C12         46.2540   -40.1740   -29.1680 ca         1 A1A      -0.014000
     12 N04         43.6560   -40.1530   -32.0960 n3         1 A1A      -0.797500
     13 O07         42.4640   -42.1080   -30.4190 oh         1 A1A      -0.636000
     14 O15         46.1160   -39.4830   -32.0890 o          1 A1A      -0.540500
     15 O16         45.5270   -41.8660   -31.9880 o          1 A1A      -0.540500
     16 S14         45.1770   -40.4980   -31.6180 sy         1 A1A       1.190600
     17 H101        45.0400   -40.3430   -26.0140 ha         1 A1A       0.119000
     18 H013        42.9180   -42.3530   -33.5230 hc         1 A1A       0.045200
     19 H011        41.4950   -41.3080   -33.4420 hc         1 A1A       0.045200
     20 H012        42.3640   -41.4890   -34.9590 hc         1 A1A       0.045200
     21 H021        44.3530   -40.4110   -34.0320 h1         1 A1A       0.061700
     22 H031        43.5220   -38.0960   -33.8340 hc         1 A1A       0.045200
     23 H032        42.7260   -38.9690   -35.1470 hc         1 A1A       0.045200
     24 H033        41.8670   -38.6890   -33.6390 hc         1 A1A       0.045200
     25 H052        42.6230   -38.8230   -30.8090 h1         1 A1A       0.060200
     26 H051        41.6410   -39.9730   -31.7000 h1         1 A1A       0.060200
     27 H061        41.7430   -40.4960   -29.3220 h1         1 A1A       0.051700
     28 H091        42.9360   -40.6850   -27.2590 ha         1 A1A       0.113000
     29 H111        47.1630   -40.0020   -27.2400 ha         1 A1A       0.122000
     30 H121        47.1820   -40.0110   -29.7000 ha         1 A1A       0.140000
     31 H071        42.4350   -42.6950   -29.6560 ho         1 A1A       0.453000
@<TRIPOS>BOND
     1     1     9 ar  
     2     1    10 ar  
     3     1    17 1   
     4     2     8 ar  
     5     2    11 ar  
     6     2    16 1   
     7     3     4 1   
     8     3    18 1   
     9     3    19 1   
    10     3    20 1   
    11     4     5 1   
    12     4    12 1   
    13     4    21 1   
    14     5    22 1   
    15     5    23 1   
    16     5    24 1   
    17     6     7 1   
    18     6    12 1   
    19     6    25 1   
    20     6    26 1   
    21     7     8 1   
    22     7    13 1   
    23     7    27 1   
    24     8     9 ar  
    25     9    28 1   
    26    10    11 ar  
    27    10    29 1   
    28    11    30 1   
    29    12    16 1   
    30    13    31 1   
    31    14    16 2   
    32    15    16 2   
@<TRIPOS>SUBSTRUCTURE
     1 A1A         1 TEMP              0 ****  ****    0 ROOT
