@<TRIPOS>MOLECULE
A1A
   21    22     1     0     0
SMALL
abcg2


@<TRIPOS>ATOM
      1 C10        -28.5490    33.3420   -10.1720 cc         1 A1A       0.234500
      2 C13        -30.6190    34.0550   -10.6140 cd         1 A1A      -0.186000
      3 C04        -26.1770    30.6900    -8.9760 ca         1 A1A      -0.144600
      4 C05        -24.9570    31.3510    -9.0980 ca         1 A1A      -0.069000
      5 C06        -24.9090    32.6560    -9.5670 ca         1 A1A      -0.155000
      6 C07        -26.0730    33.3210    -9.9230 ca         1 A1A      -0.108000
      7 C08        -27.3070    32.6760    -9.8100 ca         1 A1A      -0.179500
      8 C09        -27.3370    31.3630    -9.3350 ca         1 A1A      -0.059000
      9 C12        -29.7260    35.0250   -10.9170 cc         1 A1A       0.084900
     10 C14        -29.8550    32.9540   -10.1300 cd         1 A1A      -0.204000
     11 O01        -27.3780    28.7450    -8.3760 o          1 A1A      -0.718000
     12 O03        -25.1570    28.7210    -8.1620 o          1 A1A      -0.718000
     13 O11        -28.4740    34.6020   -10.6520 os         1 A1A      -0.246000
     14 H131       -31.6900    34.1120   -10.7220 ha         1 A1A       0.125000
     15 H051       -24.0430    30.8420    -8.8250 ha         1 A1A       0.128000
     16 H061       -23.9580    33.1640    -9.6580 ha         1 A1A       0.088000
     17 H071       -26.0120    34.3390   -10.2850 ha         1 A1A       0.096000
     18 H091       -28.2840    30.8450    -9.2410 ha         1 A1A       0.132000
     19 H121       -29.8260    36.0240   -11.3100 h4         1 A1A       0.035100
     20 H141       -30.2330    32.0040    -9.7910 ha         1 A1A       0.148000
     21 C02        -26.2440    29.2530    -8.4570 c          1 A1A       0.715600
@<TRIPOS>BOND
     1     1     7 1   
     2     1    10 2   
     3     1    13 1   
     4     2     9 2   
     5     2    10 1   
     6     2    14 1   
     7     3     4 ar  
     8     3     8 ar  
     9     3    21 1   
    10     4     5 ar  
    11     4    15 1   
    12     5     6 ar  
    13     5    16 1   
    14     6     7 ar  
    15     6    17 1   
    16     7     8 ar  
    17     8    18 1   
    18     9    13 1   
    19     9    19 1   
    20    10    20 1   
    21    11    21 1   
    22    12    21 1   
@<TRIPOS>SUBSTRUCTURE
     1 A1A         1 TEMP              0 ****  ****    0 ROOT
