@<TRIPOS>MOLECULE
A1A
   22    22     1     0     0
SMALL
No Charge or Current Charge


@<TRIPOS>ATOM
      1 C10         23.6260   -25.6960   -26.7710 c3         1 A1A       0.173800
      2 C02         22.3100   -23.2440   -24.7630 c3         1 A1A       0.291000
      3 C05         23.5390   -23.2520   -25.7530 c3         1 A1A       0.143500
      4 C07         25.1110   -24.6800   -24.3210 c3         1 A1A       0.167800
      5 C08         25.5760   -25.9050   -25.1740 c3         1 A1A       0.132800
      6 C11         23.3670   -24.1870   -26.9840 c3         1 A1A      -0.103400
      7 F01         21.9440   -24.4860   -24.3680 f          1 A1A      -0.118333
      8 F03         22.5780   -22.5200   -23.6500 f          1 A1A      -0.118333
      9 F04         21.2320   -22.6810   -25.3560 f          1 A1A      -0.118333
     10 N06         24.8850   -23.4440   -25.1200 n7         1 A1A      -0.880400
     11 N09         25.0680   -25.9480   -26.5740 n7         1 A1A      -0.891400
     12 H1          23.0250   -26.0950   -25.9430 h1         1 A1A       0.037200
     13 H101        23.2960   -26.2130   -27.6830 h1         1 A1A       0.037200
     14 H2          23.5340   -22.2380   -26.1800 h1         1 A1A       0.077700
     15 H072        24.2190   -24.9600   -23.7480 h1         1 A1A       0.058200
     16 H071        25.8970   -24.4970   -23.5750 h1         1 A1A       0.058200
     17 H082        25.2770   -26.8160   -24.6370 h1         1 A1A       0.033700
     18 H081        26.6740   -25.9030   -25.1980 h1         1 A1A       0.033700
     19 H3          24.0290   -23.8350   -27.7850 hc         1 A1A       0.059200
     20 H111        22.3490   -24.0680   -27.3730 hc         1 A1A       0.059200
     21 H4          25.5760   -23.4730   -25.8820 hn         1 A1A       0.444000
     22 H091        25.2820   -26.8830   -26.9450 hn         1 A1A       0.421000
@<TRIPOS>BOND
     1     1     6 1   
     2     1    11 1   
     3     1    12 1   
     4     1    13 1   
     5     2     3 1   
     6     2     7 1   
     7     2     8 1   
     8     2     9 1   
     9     3     6 1   
    10     3    10 1   
    11     3    14 1   
    12     4     5 1   
    13     4    10 1   
    14     4    15 1   
    15     4    16 1   
    16     5    11 1   
    17     5    17 1   
    18     5    18 1   
    19     6    19 1   
    20     6    20 1   
    21    10    21 1   
    22    11    22 1   
@<TRIPOS>SUBSTRUCTURE
     1 A1A         1 TEMP              0 ****  ****    0 ROOT
