@<TRIPOS>MOLECULE
A1A
   32    33     1     0     0
SMALL
No Charge or Current Charge


@<TRIPOS>ATOM
      1 C13         22.4660   -26.5970   -24.5700 ca         1 A1A      -0.023000
      2 C15         20.5800   -27.4130   -25.8720 ca         1 A1A      -0.065000
      3 C17         20.7890   -25.0240   -25.3980 ca         1 A1A       0.010700
      4 C03         20.2340   -23.6070   -25.5570 c6         1 A1A       0.200600
      5 C04         21.3800   -22.5580   -25.6280 c6         1 A1A       0.175800
      6 C07         24.0650   -20.9350   -25.3210 c3         1 A1A       0.124600
      7 C12         21.9830   -25.2760   -24.6800 ca         1 A1A      -0.231500
      8 C14         21.7670   -27.6610   -25.1660 ca         1 A1A      -0.116000
      9 C16         20.0940   -26.1010   -25.9860 ca         1 A1A      -0.107000
     10 N05         22.1950   -22.5040   -24.3910 n3         1 A1A      -0.745500
     11 O02         19.3060   -23.3690   -24.4670 os         1 A1A      -0.432000
     12 O08         23.4460   -20.4570   -26.5320 oh         1 A1A      -0.665000
     13 S09         22.9220   -23.9580   -23.8710 sy         1 A1A       1.164600
     14 H131        23.3830   -26.8030   -24.0210 ha         1 A1A       0.131000
     15 H151        20.0370   -28.2370   -26.3300 ha         1 A1A       0.117000
     16 H012        17.8460   -22.1130   -23.6580 h1         1 A1A       0.031367
     17 H013        19.2440   -21.2720   -24.3540 h1         1 A1A       0.031367
     18 H011        18.0240   -22.0120   -25.4230 h1         1 A1A       0.031367
     19 H031        19.6710   -23.5600   -26.5000 h1         1 A1A       0.049700
     20 H042        22.0170   -22.8040   -26.4910 h1         1 A1A       0.071700
     21 H041        20.9400   -21.5740   -25.8430 h1         1 A1A       0.071700
     22 H061        22.3420   -20.4040   -24.1360 h1         1 A1A       0.076200
     23 H062        23.5440   -21.3170   -23.2540 h1         1 A1A       0.076200
     24 H072        24.6870   -21.8130   -25.5310 h1         1 A1A       0.034200
     25 H071        24.7320   -20.1580   -24.9250 h1         1 A1A       0.034200
     26 H141        22.1450   -28.6770   -25.0760 ha         1 A1A       0.120000
     27 H161        19.1730   -25.9180   -26.5350 ha         1 A1A       0.117000
     28 H081        24.1700   -20.2520   -27.1660 ho         1 A1A       0.452000
     29 C06         23.0130   -21.2700   -24.2150 c3         1 A1A       0.215800
     30 C01         18.5720   -22.1310   -24.4800 c3         1 A1A       0.142900
     31 O10         24.2850   -24.0000   -24.4110 o          1 A1A      -0.546500
     32 O11         22.6690   -24.0600   -22.4300 o          1 A1A      -0.546500
@<TRIPOS>BOND
     1     1     7 ar  
     2     1     8 ar  
     3     1    14 1   
     4     2     8 ar  
     5     2     9 ar  
     6     2    15 1   
     7     3     4 1   
     8     3     7 ar  
     9     3     9 ar  
    10     4     5 1   
    11     4    11 1   
    12     4    19 1   
    13     5    10 1   
    14     5    20 1   
    15     5    21 1   
    16     6    12 1   
    17     6    24 1   
    18     6    25 1   
    19     6    29 1   
    20     7    13 1   
    21     8    26 1   
    22     9    27 1   
    23    10    13 1   
    24    10    29 1   
    25    11    30 1   
    26    12    28 1   
    27    13    31 2   
    28    13    32 2   
    29    16    30 1   
    30    17    30 1   
    31    18    30 1   
    32    22    29 1   
    33    23    29 1   
@<TRIPOS>SUBSTRUCTURE
     1 A1A         1 TEMP              0 ****  ****    0 ROOT
