@<TRIPOS>MOLECULE
A1A
   37    40     1     0     0
SMALL
abcg2


@<TRIPOS>ATOM
      1 N1         171.3490   191.1590   169.5830 ne         1 A1A      -0.369700
      2 N3         174.1180   188.7770   162.8230 nv         1 A1A      -1.084000
      3 C4         173.1520   190.5970   166.4830 ca         1 A1A      -0.195900
      4 C5         173.7660   191.3160   165.4550 ca         1 A1A      -0.032000
      5 C6         174.0660   190.7300   164.2400 ca         1 A1A      -0.196000
      6 C7         173.7710   189.3800   164.0030 ca         1 A1A       0.318000
      7 C8         173.1580   188.6530   165.0340 ca         1 A1A      -0.196000
      8 C10        173.6150   192.3380   168.2640 ca         1 A1A      -0.173900
      9 C13        173.7710   194.5360   169.3070 ca         1 A1A      -0.102000
     10 C15        177.3320   194.6340   169.4710 c5         1 A1A       0.374600
     11 C17        175.0200   192.2450   168.1910 ca         1 A1A      -0.061000
     12 C11        173.0050   193.4740   168.8080 ca         1 A1A      -0.059300
     13 C12        171.5080   193.4890   168.9030 c3         1 A1A      -0.121400
     14 C14        175.1350   194.4160   169.2300 ca         1 A1A       0.071100
     15 C16        175.7450   193.2930   168.6840 ca         1 A1A       0.044100
     16 C2         171.1840   192.3880   169.8770 c2         1 A1A       0.388300
     17 C3         172.7770   191.2400   167.7560 cf         1 A1A       0.504500
     18 C9         172.8540   189.2530   166.2390 ca         1 A1A      -0.032000
     19 N2         171.7230   190.7780   168.3380 ne         1 A1A      -0.380700
     20 O1         176.0800   195.2970   169.6160 os         1 A1A      -0.342100
     21 O2         177.0890   193.4550   168.7190 os         1 A1A      -0.340100
     22 H2         173.6240   187.9340   162.5790 hn         1 A1A       0.457500
     23 H3         174.2770   189.3810   162.0320 hn         1 A1A       0.457500
     24 H4         173.9980   192.3650   165.5920 ha         1 A1A       0.122500
     25 H5         174.5310   191.3220   163.4610 ha         1 A1A       0.114000
     26 H6         172.9250   187.6050   164.8820 ha         1 A1A       0.114000
     27 H7         173.2980   195.4130   169.7280 ha         1 A1A       0.136000
     28 H8         177.7280   194.3750   170.4580 h2         1 A1A       0.067200
     29 H9         178.0290   195.2780   168.9360 h2         1 A1A       0.067200
     30 H10        175.5020   191.3730   167.7680 ha         1 A1A       0.148000
     31 H11        170.6230   191.8890   171.8850 hc         1 A1A       0.055367
     32 H12        171.4600   193.4440   171.7080 hc         1 A1A       0.055367
     33 H13        169.7880   193.2980   171.2050 hc         1 A1A       0.055367
     34 H14        171.1410   194.4510   169.2590 hc         1 A1A       0.073200
     35 H15        171.0500   193.2900   167.9290 hc         1 A1A       0.073200
     36 H18        172.3850   188.6640   167.0160 ha         1 A1A       0.122500
     37 C1         170.7400   192.7630   171.2490 c3         1 A1A      -0.132400
@<TRIPOS>BOND
     1     1    16 2   
     2     1    19 1   
     3     2     6 1   
     4     2    22 1   
     5     2    23 1   
     6     3     4 ar  
     7     3    17 1   
     8     3    18 ar  
     9     4     5 ar  
    10     4    24 1   
    11     5     6 ar  
    12     5    25 1   
    13     6     7 ar  
    14     7    18 ar  
    15     7    26 1   
    16     8    11 ar  
    17     8    12 ar  
    18     8    17 1   
    19     9    12 ar  
    20     9    14 ar  
    21     9    27 1   
    22    10    20 1   
    23    10    21 1   
    24    10    28 1   
    25    10    29 1   
    26    11    15 ar  
    27    11    30 1   
    28    12    13 1   
    29    13    16 1   
    30    13    34 1   
    31    13    35 1   
    32    14    15 ar  
    33    14    20 1   
    34    15    21 1   
    35    16    37 1   
    36    17    19 2   
    37    18    36 1   
    38    31    37 1   
    39    32    37 1   
    40    33    37 1   
@<TRIPOS>SUBSTRUCTURE
     1 A1A         1 TEMP              0 ****  ****    0 ROOT
