@<TRIPOS>MOLECULE
A1A
   35    38     1     0     0
SMALL
No Charge or Current Charge


@<TRIPOS>ATOM
      1 C10        -26.3290    20.0260    12.1000 c          1 A1A       0.558000
      2 C13        -21.8070    20.1270    11.9910 ca         1 A1A      -0.175300
      3 C15        -19.9370    20.5520    13.5090 ca         1 A1A      -0.162000
      4 C17        -20.3740    22.0750    11.6740 ca         1 A1A      -0.186000
      5 C03        -23.5820    21.1010     9.9040 c6         1 A1A       0.219800
      6 C04        -23.5610    19.5960    10.2170 c5         1 A1A      -0.117700
      7 C05        -24.9710    18.9480    10.2850 c5         1 A1A       0.098000
      8 C08        -24.3230    20.5490    13.2400 c5         1 A1A       0.124800
      9 C09        -25.8590    20.5190    13.4630 c5         1 A1A      -0.172400
     10 C12        -22.9780    19.2080    11.6150 c5         1 A1A       0.201800
     11 C14        -21.0280    19.7680    13.1100 ca         1 A1A      -0.054000
     12 C16        -19.6080    21.7080    12.7920 ca         1 A1A      -0.061000
     13 C18        -21.4760    21.2970    11.2560 ca         1 A1A       0.335000
     14 N02        -22.2440    21.6910    10.1260 nh         1 A1A      -0.809400
     15 N06        -25.2650    19.2000    11.7050 n          1 A1A      -0.288200
     16 N07        -24.1430    19.2210    12.5670 n3         1 A1A      -0.432600
     17 O11        -27.1910    20.4750    11.3550 o          1 A1A      -0.540000
     18 H151       -19.3460    20.2630    14.3760 ha         1 A1A       0.117000
     19 H171       -20.1010    22.9810    11.1430 ha         1 A1A       0.114000
     20 H012       -20.7570    22.5580     8.8690 h1         1 A1A       0.038367
     21 H013       -22.4140    22.7510     8.2730 h1         1 A1A       0.038367
     22 H011       -21.8570    23.7320     9.6470 h1         1 A1A       0.038367
     23 H032       -24.3260    21.6170    10.5260 h1         1 A1A       0.043200
     24 H031       -23.9000    21.2350     8.8590 h1         1 A1A       0.043200
     25 H041       -22.9640    19.1520     9.4130 hc         1 A1A       0.085700
     26 H052       -25.6870    19.4130     9.5940 h1         1 A1A       0.070200
     27 H051       -24.9370    17.8690    10.0850 h1         1 A1A       0.070200
     28 H081       -23.7580    20.6190    14.1790 h1         1 A1A       0.059700
     29 H082       -24.0420    21.4010    12.6090 h1         1 A1A       0.059700
     30 H092       -26.3130    21.4760    13.7370 hc         1 A1A       0.082200
     31 H091       -26.0770    19.7510    14.2130 hc         1 A1A       0.082200
     32 H121       -22.6040    18.1760    11.5490 h1         1 A1A       0.088700
     33 H141       -21.2750    18.8720    13.6760 ha         1 A1A       0.116000
     34 H161       -18.7630    22.3200    13.1000 ha         1 A1A       0.110000
     35 C01        -21.7940    22.7400     9.1800 c3         1 A1A       0.204100
@<TRIPOS>BOND
     1     1     9 1   
     2     1    15 1   
     3     1    17 2   
     4     2    10 1   
     5     2    11 ar  
     6     2    13 ar  
     7     3    11 ar  
     8     3    12 ar  
     9     3    18 1   
    10     4    12 ar  
    11     4    13 ar  
    12     4    19 1   
    13     5     6 1   
    14     5    14 1   
    15     5    23 1   
    16     5    24 1   
    17     6     7 1   
    18     6    10 1   
    19     6    25 1   
    20     7    15 1   
    21     7    26 1   
    22     7    27 1   
    23     8     9 1   
    24     8    16 1   
    25     8    28 1   
    26     8    29 1   
    27     9    30 1   
    28     9    31 1   
    29    10    16 1   
    30    10    32 1   
    31    11    33 1   
    32    12    34 1   
    33    13    14 1   
    34    14    35 1   
    35    15    16 1   
    36    20    35 1   
    37    21    35 1   
    38    22    35 1   
@<TRIPOS>SUBSTRUCTURE
     1 A1A         1 TEMP              0 ****  ****    0 ROOT
