@<TRIPOS>MOLECULE
A1A
   31    32     1     0     0
SMALL
abcg2


@<TRIPOS>ATOM
      1 C10        -50.6410    45.6750    -4.8000 c6         1 A1A       0.181300
      2 C15        -49.5470    45.9770    -3.7850 c6         1 A1A      -0.127400
      3 C03        -51.2820    47.7600    -7.7280 ca         1 A1A      -0.119300
      4 C04        -52.2480    47.9940    -8.6940 ca         1 A1A      -0.052000
      5 C05        -53.4880    47.3650    -8.6400 ca         1 A1A      -0.150000
      6 C06        -53.7650    46.4910    -7.6040 ca         1 A1A      -0.074000
      7 C07        -52.8130    46.2400    -6.6220 ca         1 A1A      -0.199000
      8 C08        -51.5770    46.8740    -6.6790 ca         1 A1A       0.144100
      9 C11        -50.3660    44.3230    -5.4550 c6         1 A1A      -0.127400
     10 C12        -48.9350    44.2470    -5.9660 c6         1 A1A       0.158600
     11 C14        -48.1610    45.7960    -4.3880 c6         1 A1A       0.158600
     12 O01        -49.8120    49.2190    -8.9080 oh         1 A1A      -0.664000
     13 O09        -50.5990    46.7280    -5.7610 os         1 A1A      -0.366100
     14 O13        -47.9990    44.5090    -4.9430 os         1 A1A      -0.452000
     15 H101       -51.6110    45.6680    -4.2920 h1         1 A1A       0.049700
     16 H151       -49.6570    46.9910    -3.3940 hc         1 A1A       0.060700
     17 H152       -49.6710    45.2940    -2.9410 hc         1 A1A       0.060700
     18 H021       -49.1520    47.6410    -7.7340 h1         1 A1A       0.030700
     19 H022       -49.7950    49.0110    -6.8440 h1         1 A1A       0.030700
     20 H041       -52.0340    48.6740    -9.5070 ha         1 A1A       0.133000
     21 H051       -54.2270    47.5610    -9.4060 ha         1 A1A       0.115000
     22 H061       -54.7230    45.9920    -7.5490 ha         1 A1A       0.110000
     23 H071       -53.0520    45.5510    -5.8230 ha         1 A1A       0.115000
     24 H111       -51.0620    44.1230    -6.2720 hc         1 A1A       0.060700
     25 H112       -50.5320    43.5440    -4.7050 hc         1 A1A       0.060700
     26 H121       -48.7220    43.2460    -6.3430 h1         1 A1A       0.049450
     27 H122       -48.7960    44.9450    -6.8040 h1         1 A1A       0.049450
     28 H141       -47.3980    45.9080    -3.6160 h1         1 A1A       0.049450
     29 H142       -47.9720    46.5700    -5.1450 h1         1 A1A       0.049450
     30 H011       -48.9440    49.6320    -8.8950 ho         1 A1A       0.445000
     31 C02        -49.9290    48.4190    -7.7600 c3         1 A1A       0.218900
@<TRIPOS>BOND
     1     1     2 1   
     2     1     9 1   
     3     1    13 1   
     4     1    15 1   
     5     2    11 1   
     6     2    16 1   
     7     2    17 1   
     8     3     4 ar  
     9     3     8 ar  
    10     3    31 1   
    11     4     5 ar  
    12     4    20 1   
    13     5     6 ar  
    14     5    21 1   
    15     6     7 ar  
    16     6    22 1   
    17     7     8 ar  
    18     7    23 1   
    19     8    13 1   
    20     9    10 1   
    21     9    24 1   
    22     9    25 1   
    23    10    14 1   
    24    10    26 1   
    25    10    27 1   
    26    11    14 1   
    27    11    28 1   
    28    11    29 1   
    29    12    30 1   
    30    12    31 1   
    31    18    31 1   
    32    19    31 1   
@<TRIPOS>SUBSTRUCTURE
     1 A1A         1 TEMP              0 ****  ****    0 ROOT
