@<TRIPOS>MOLECULE
A1A
   76    81     1     0     0
SMALL
abcg2


@<TRIPOS>ATOM
      1 C12         17.9990    13.5620    24.1040 c6         1 A1A       0.138600
      2 C13         18.6110    13.2640    25.4630 c6         1 A1A       0.060500
      3 C15         23.2770    13.3470    26.8330 cc         1 A1A      -0.162300
      4 C16         22.9750    13.4950    28.2880 c3         1 A1A       0.007900
      5 C17         21.9810    14.6100    28.5730 c3         1 A1A       0.164600
      6 C21         19.6960    18.1250    28.2570 ca         1 A1A      -0.055000
      7 C22         20.1380    19.1550    27.4010 ca         1 A1A      -0.073000
      8 C23         19.3580    20.3120    27.1670 ca         1 A1A      -0.085000
      9 C24         19.8050    21.3000    26.3340 ca         1 A1A      -0.119000
     10 C25         21.0580    21.1700    25.7010 ca         1 A1A      -0.097000
     11 C26         21.8350    20.0630    25.9080 ca         1 A1A      -0.110000
     12 C02         24.4830    13.5270    26.1820 cd         1 A1A      -0.116300
     13 C06         22.3750    13.0570    25.7940 cc         1 A1A       0.204500
     14 C07         20.9360    12.7020    25.9460 c          1 A1A       0.544600
     15 C09         20.3200    14.8990    24.9580 c6         1 A1A       0.060500
     16 C10         19.6490    15.1310    23.6170 c6         1 A1A       0.138600
     17 C19         21.7080    16.8700    27.8380 ca         1 A1A       0.165100
     18 C20         20.4560    17.0100    28.4780 ca         1 A1A      -0.183000
     19 C27         21.3990    19.0190    26.7620 ca         1 A1A       0.016000
     20 C28         22.1750    17.8550    26.9910 cp         1 A1A      -0.104000
     21 C29         23.4740    17.6630    26.3050 cp         1 A1A       0.063000
     22 C30         23.4940    17.2390    24.9910 ca         1 A1A      -0.218000
     23 C31         24.7290    17.0570    24.3380 ca         1 A1A       0.607900
     24 C33         25.9560    16.9010    22.2210 c6         1 A1A       0.210300
     25 C34         25.5990    18.0720    21.3140 c6         1 A1A       0.125800
     26 C36         23.2780    17.4280    21.3740 c6         1 A1A       0.125800
     27 C37         23.6490    16.2550    22.2680 c6         1 A1A       0.210300
     28 C39         25.8400    17.7570    26.2180 ca         1 A1A       0.372900
     29 C40         24.6810    17.9270    26.9500 ca         1 A1A      -0.194000
     30 N03         24.2430    13.3300    24.8670 na         1 A1A       0.145800
     31 N05         22.9690    13.0470    24.6140 nd         1 A1A      -0.507800
     32 N08         20.0340    13.5520    25.4190 n          1 A1A      -0.403800
     33 N32         24.8190    16.5670    23.0630 nh         1 A1A      -0.780300
     34 N35         24.4190    17.7450    20.5310 n7         1 A1A      -0.865400
     35 N38         25.8760    17.3340    24.9620 nb         1 A1A      -0.754000
     36 O11         18.2630    14.8820    23.6860 os         1 A1A      -0.447000
     37 O14         20.6300    11.6730    26.5340 o          1 A1A      -0.595100
     38 O18         22.5010    15.7980    28.0040 os         1 A1A      -0.340100
     39 H122        16.9160    13.4450    24.1540 h1         1 A1A       0.053950
     40 H121        18.3850    12.8400    23.3700 h1         1 A1A       0.053950
     41 H131        18.1380    13.8790    26.2370 h1         1 A1A       0.063700
     42 H132        18.4510    12.2200    25.7210 h1         1 A1A       0.063700
     43 H161        22.5530    12.5720    28.6930 hc         1 A1A       0.062700
     44 H162        23.8950    13.6800    28.8450 hc         1 A1A       0.062700
     45 H172        21.0040    14.3740    28.1380 h1         1 A1A       0.037700
     46 H171        21.8400    14.7220    29.6530 h1         1 A1A       0.037700
     47 H231        18.3980    20.4010    27.6620 ha         1 A1A       0.113000
     48 H241        19.2020    22.1820    26.1600 ha         1 A1A       0.114000
     49 H251        21.4100    21.9570    25.0450 ha         1 A1A       0.112000
     50 H261        22.7950    19.9850    25.4150 ha         1 A1A       0.121000
     51 H091        19.9410    15.6160    25.6950 h1         1 A1A       0.063700
     52 H092        21.3900    15.0570    24.8680 h1         1 A1A       0.063700
     53 H102        19.7830    16.1700    23.3120 h1         1 A1A       0.053950
     54 H101        20.1240    14.4900    22.8610 h1         1 A1A       0.053950
     55 H201        20.0900    16.2420    29.1460 ha         1 A1A       0.122000
     56 H301        22.5540    17.0810    24.4830 ha         1 A1A       0.122000
     57 H332        26.8180    17.1370    22.8370 h1         1 A1A       0.065950
     58 H331        26.2070    16.0250    21.6150 h1         1 A1A       0.065950
     59 H342        25.4630    18.9670    21.9420 h1         1 A1A       0.039200
     60 H341        26.4320    18.2740    20.6370 h1         1 A1A       0.039200
     61 H362        22.9570    18.2740    22.0040 h1         1 A1A       0.039200
     62 H361        22.4300    17.1560    20.7430 h1         1 A1A       0.039200
     63 H372        22.8140    15.9430    22.8910 h1         1 A1A       0.065950
     64 H371        23.8990    15.3960    21.6370 h1         1 A1A       0.065950
     65 H391        26.8030    17.9690    26.6720 h4         1 A1A       0.013100
     66 H401        24.7140    18.2700    27.9750 ha         1 A1A       0.130000
     67 H351        24.1900    18.5180    19.9220 hn         1 A1A       0.414000
     68 C01         25.8330    13.8680    26.6990 c3         1 A1A      -0.034800
     69 C04         25.2270    13.2900    23.8130 c3         1 A1A       0.064900
     70 H211        18.7360    18.2250    28.7500 ha         1 A1A       0.116000
     71 H011        26.2460    14.7420    26.1920 hc         1 A1A       0.054700
     72 H013        25.7880    14.0960    27.7620 hc         1 A1A       0.054700
     73 H012        26.5380    13.0460    26.5640 hc         1 A1A       0.054700
     74 H042        24.7110    13.3040    22.8580 h1         1 A1A       0.061033
     75 H043        25.8780    14.1590    23.8700 h1         1 A1A       0.061033
     76 H041        25.8320    12.3860    23.8780 h1         1 A1A       0.061033
@<TRIPOS>BOND
     1     1     2 1   
     2     1    36 1   
     3     1    39 1   
     4     1    40 1   
     5     2    32 1   
     6     2    41 1   
     7     2    42 1   
     8     3     4 1   
     9     3    12 2   
    10     3    13 1   
    11     4     5 1   
    12     4    43 1   
    13     4    44 1   
    14     5    38 1   
    15     5    45 1   
    16     5    46 1   
    17     6     7 ar  
    18     6    18 ar  
    19     6    70 1   
    20     7     8 ar  
    21     7    19 ar  
    22     8     9 ar  
    23     8    47 1   
    24     9    10 ar  
    25     9    48 1   
    26    10    11 ar  
    27    10    49 1   
    28    11    19 ar  
    29    11    50 1   
    30    12    30 1   
    31    12    68 1   
    32    13    14 1   
    33    13    31 2   
    34    14    32 1   
    35    14    37 2   
    36    15    16 1   
    37    15    32 1   
    38    15    51 1   
    39    15    52 1   
    40    16    36 1   
    41    16    53 1   
    42    16    54 1   
    43    17    18 ar  
    44    17    20 ar  
    45    17    38 1   
    46    18    55 1   
    47    19    20 ar  
    48    20    21 1   
    49    21    22 ar  
    50    21    29 ar  
    51    22    23 ar  
    52    22    56 1   
    53    23    33 1   
    54    23    35 ar  
    55    24    25 1   
    56    24    33 1   
    57    24    57 1   
    58    24    58 1   
    59    25    34 1   
    60    25    59 1   
    61    25    60 1   
    62    26    27 1   
    63    26    34 1   
    64    26    61 1   
    65    26    62 1   
    66    27    33 1   
    67    27    63 1   
    68    27    64 1   
    69    28    29 ar  
    70    28    35 ar  
    71    28    65 1   
    72    29    66 1   
    73    30    31 1   
    74    30    69 1   
    75    34    67 1   
    76    68    71 1   
    77    68    72 1   
    78    68    73 1   
    79    69    74 1   
    80    69    75 1   
    81    69    76 1   
@<TRIPOS>SUBSTRUCTURE
     1 A1A         1 TEMP              0 ****  ****    0 ROOT
