@<TRIPOS>MOLECULE
A1A
   21    22     1     0     0
SMALL
No Charge or Current Charge


@<TRIPOS>ATOM
      1 C10        -28.5150    33.4260   -10.2140 cc         1 A1A       0.234500
      2 C13        -30.6190    34.0390   -10.5620 cd         1 A1A      -0.186000
      3 C04        -26.1850    30.6610    -8.9880 ca         1 A1A      -0.144600
      4 C05        -24.9430    31.3310    -9.0660 ca         1 A1A      -0.069000
      5 C06        -24.8790    32.6600    -9.5130 ca         1 A1A      -0.155000
      6 C07        -26.0480    33.3390    -9.8870 ca         1 A1A      -0.108000
      7 C08        -27.3010    32.6980    -9.8170 ca         1 A1A      -0.179500
      8 C09        -27.3570    31.3580    -9.3690 ca         1 A1A      -0.059000
      9 C12        -29.7870    35.0250   -11.0270 cc         1 A1A       0.084900
     10 C14        -29.8070    33.0110   -10.0380 cd         1 A1A      -0.204000
     11 O01        -27.3520    28.6760    -8.4510 o          1 A1A      -0.718000
     12 O03        -25.2210    28.6530    -8.1940 o          1 A1A      -0.718000
     13 O11        -28.4750    34.6620   -10.8150 os         1 A1A      -0.246000
     14 H131       -31.7040    34.0560   -10.5940 ha         1 A1A       0.125000
     15 H051       -24.0230    30.8250    -8.7810 ha         1 A1A       0.128000
     16 H061       -23.9180    33.1660    -9.5690 ha         1 A1A       0.088000
     17 H071       -25.9740    34.3690   -10.2290 ha         1 A1A       0.096000
     18 H091       -28.3140    30.8450    -9.3180 ha         1 A1A       0.132000
     19 H121       -29.9810    35.9790   -11.4990 h4         1 A1A       0.035100
     20 H141       -30.1460    32.0870    -9.5840 ha         1 A1A       0.148000
     21 C02        -26.2580    29.2200    -8.5080 c          1 A1A       0.715600
@<TRIPOS>BOND
     1     1     7 1   
     2     1    10 2   
     3     1    13 1   
     4     2     9 2   
     5     2    10 1   
     6     2    14 1   
     7     3     4 ar  
     8     3     8 ar  
     9     3    21 1   
    10     4     5 ar  
    11     4    15 1   
    12     5     6 ar  
    13     5    16 1   
    14     6     7 ar  
    15     6    17 1   
    16     7     8 ar  
    17     8    18 1   
    18     9    13 1   
    19     9    19 1   
    20    10    20 1   
    21    11    21 1   
    22    12    21 1   
@<TRIPOS>SUBSTRUCTURE
     1 A1A         1 TEMP              0 ****  ****    0 ROOT
