@<TRIPOS>MOLECULE
A1A
   18    19     1     0     0
SMALL
No Charge or Current Charge


@<TRIPOS>ATOM
      1 C13        -63.7330    22.2430   -12.1000 cc         1 A1A      -0.224000
      2 C04        -67.0310    20.5320    -9.2370 cc         1 A1A      -0.200600
      3 C05        -65.9990    20.2440    -8.3520 cd         1 A1A      -0.172000
      4 C06        -64.7180    20.6200    -8.8400 cd         1 A1A      -0.100000
      5 C07        -64.8070    21.2040   -10.1260 cd         1 A1A      -0.357500
      6 C09        -63.6680    21.6770   -10.8580 cd         1 A1A       0.274500
      7 C11        -61.6250    22.1590   -11.3810 cd         1 A1A       0.081900
      8 C12        -62.4010    22.5560   -12.4380 cc         1 A1A      -0.182000
      9 O01        -69.2770    20.5540    -9.8590 o          1 A1A      -0.705000
     10 O03        -68.7940    19.7250    -7.9400 o          1 A1A      -0.705000
     11 O10        -62.3840    21.6040   -10.3740 os         1 A1A      -0.240000
     12 S08        -66.4560    21.2900   -10.7330 ss         1 A1A       0.244000
     13 H131       -64.6110    22.4210   -12.7110 ha         1 A1A       0.142000
     14 H051       -66.1530    19.7780    -7.3820 ha         1 A1A       0.138000
     15 H061       -63.7930    20.4760    -8.2890 ha         1 A1A       0.113000
     16 H111       -60.5550    22.2150   -11.2280 h4         1 A1A       0.035100
     17 H121       -62.0660    23.0220   -13.3610 ha         1 A1A       0.124000
     18 C02        -68.4670    20.2510    -8.9950 c          1 A1A       0.733600
@<TRIPOS>BOND
     1     1     6 2   
     2     1     8 1   
     3     1    13 1   
     4     2     3 2   
     5     2    12 1   
     6     2    18 1   
     7     3     4 1   
     8     3    14 1   
     9     4     5 2   
    10     4    15 1   
    11     5     6 1   
    12     5    12 1   
    13     6    11 1   
    14     7     8 2   
    15     7    11 1   
    16     7    16 1   
    17     8    17 1   
    18     9    18 1   
    19    10    18 1   
@<TRIPOS>SUBSTRUCTURE
     1 A1A         1 TEMP              0 ****  ****    0 ROOT
