@<TRIPOS>MOLECULE
A1A
   41    43     1     0     0
SMALL
abcg2


@<TRIPOS>ATOM
      1 N1         -53.2560    30.0690    -7.1820 n          1 A1A      -0.398800
      2 C4         -56.1780    25.7600    -7.1980 ca         1 A1A      -0.088000
      3 C5         -55.8070    24.4880    -7.6160 ca         1 A1A      -0.113000
      4 C6         -54.5590    23.9820    -7.2780 ca         1 A1A      -0.102000
      5 C7         -53.6900    24.7530    -6.5160 ca         1 A1A      -0.113000
      6 C8         -54.0680    26.0180    -6.0900 ca         1 A1A      -0.088000
      7 C10        -53.7520    32.0290    -8.6660 c3         1 A1A      -0.092400
      8 C13        -53.6510    34.1740    -5.5760 c          1 A1A       0.562000
      9 C15        -53.1370    31.7140    -5.3120 c3         1 A1A      -0.088400
     10 C1         -54.3660    29.3040    -7.2150 c          1 A1A       0.636100
     11 C11        -54.2370    32.7370    -7.4070 c5         1 A1A      -0.075700
     12 C12        -54.7090    34.1730    -7.6700 c5         1 A1A       0.102000
     13 C14        -53.2140    32.8930    -6.2740 c5         1 A1A      -0.150700
     14 C16        -52.5770    30.4520    -5.9510 c3         1 A1A       0.113000
     15 C2         -55.7510    27.8870    -5.9380 c3         1 A1A       0.227900
     16 C3         -55.3160    26.5340    -6.4300 ca         1 A1A      -0.119300
     17 C9         -52.8880    30.7960    -8.3860 c3         1 A1A       0.114000
     18 N2         -54.5050    34.8130    -6.3920 ns         1 A1A      -0.513900
     19 O1         -54.9960    29.0470    -8.2210 o          1 A1A      -0.535000
     20 O2         -54.7060    28.8510    -6.0000 os         1 A1A      -0.454100
     21 O3         -53.2850    34.5540    -4.4770 o          1 A1A      -0.554000
     22 H4         -56.4900    23.8980    -8.2130 ha         1 A1A       0.112500
     23 H5         -54.2650    22.9940    -7.6080 ha         1 A1A       0.112000
     24 H6         -52.7150    24.3650    -6.2490 ha         1 A1A       0.112500
     25 H7         -53.3810    26.6030    -5.4900 ha         1 A1A       0.115000
     26 H10        -53.1590    32.7160    -9.2760 hc         1 A1A       0.054200
     27 H11        -54.6190    31.7520    -9.2690 hc         1 A1A       0.054200
     28 H17        -52.5020    31.9740    -4.4620 hc         1 A1A       0.065200
     29 H18        -54.1350    31.5130    -4.9100 hc         1 A1A       0.065200
     30 H12        -55.0900    32.1830    -7.0000 hc         1 A1A       0.067700
     31 H14        -54.1110    34.6530    -8.4530 h1         1 A1A       0.044700
     32 H13        -55.7550    34.2180    -7.9740 h1         1 A1A       0.044700
     33 H16        -52.2160    33.0930    -6.6900 hc         1 A1A       0.073700
     34 H19        -52.6040    29.6280    -5.2410 h1         1 A1A       0.058200
     35 H20        -51.5260    30.6060    -6.2050 h1         1 A1A       0.058200
     36 H1         -56.0100    27.8370    -4.8800 h1         1 A1A       0.066200
     37 H2         -56.6360    28.2280    -6.4790 h1         1 A1A       0.066200
     38 H8         -52.9020    30.1260    -9.2450 h1         1 A1A       0.058200
     39 H9         -51.8510    31.1040    -8.2530 h1         1 A1A       0.058200
     40 H15        -54.8500    35.7380    -6.1840 hn         1 A1A       0.328500
     41 H3         -57.1490    26.1540    -7.4760 ha         1 A1A       0.115000
@<TRIPOS>BOND
     1     1    10 1   
     2     1    14 1   
     3     1    17 1   
     4     2     3 ar  
     5     2    16 ar  
     6     2    41 1   
     7     3     4 ar  
     8     3    22 1   
     9     4     5 ar  
    10     4    23 1   
    11     5     6 ar  
    12     5    24 1   
    13     6    16 ar  
    14     6    25 1   
    15     7    11 1   
    16     7    17 1   
    17     7    26 1   
    18     7    27 1   
    19     8    13 1   
    20     8    18 1   
    21     8    21 2   
    22     9    13 1   
    23     9    14 1   
    24     9    28 1   
    25     9    29 1   
    26    10    19 2   
    27    10    20 1   
    28    11    12 1   
    29    11    13 1   
    30    11    30 1   
    31    12    18 1   
    32    12    31 1   
    33    12    32 1   
    34    13    33 1   
    35    14    34 1   
    36    14    35 1   
    37    15    16 1   
    38    15    20 1   
    39    15    36 1   
    40    15    37 1   
    41    17    38 1   
    42    17    39 1   
    43    18    40 1   
@<TRIPOS>SUBSTRUCTURE
     1 A1A         1 TEMP              0 ****  ****    0 ROOT
