@<TRIPOS>MOLECULE
A1A
   18    19     1     0     0
SMALL
abcg2


@<TRIPOS>ATOM
      1 C13        -63.7340    22.2530   -12.1750 cc         1 A1A      -0.224000
      2 C04        -67.0090    20.5000    -9.1610 cc         1 A1A      -0.200600
      3 C05        -65.9630    20.2200    -8.3310 cd         1 A1A      -0.172000
      4 C06        -64.7090    20.6080    -8.8590 cd         1 A1A      -0.100000
      5 C07        -64.8150    21.1840   -10.1000 cd         1 A1A      -0.357500
      6 C09        -63.7570    21.6970   -10.9310 cd         1 A1A       0.274500
      7 C11        -61.6710    22.1720   -11.3570 cd         1 A1A       0.081900
      8 C12        -62.3700    22.5610   -12.4490 cc         1 A1A      -0.182000
      9 O01        -69.2010    20.6360    -9.9310 o          1 A1A      -0.705000
     10 O03        -68.8290    19.7280    -7.9130 o          1 A1A      -0.705000
     11 O10        -62.5020    21.6490   -10.4330 os         1 A1A      -0.240000
     12 S08        -66.4610    21.2450   -10.6120 ss         1 A1A       0.244000
     13 H131       -64.5820    22.4200   -12.8200 ha         1 A1A       0.142000
     14 H051       -66.0880    19.7500    -7.3650 ha         1 A1A       0.138000
     15 H061       -63.7700    20.4680    -8.3430 ha         1 A1A       0.113000
     16 H111       -60.6240    22.2050   -11.1030 h4         1 A1A       0.035100
     17 H121       -61.9670    23.0120   -13.3410 ha         1 A1A       0.124000
     18 C02        -68.4860    20.2630    -8.9810 c          1 A1A       0.733600
@<TRIPOS>BOND
     1     1     6 2   
     2     1     8 1   
     3     1    13 1   
     4     2     3 2   
     5     2    12 1   
     6     2    18 1   
     7     3     4 1   
     8     3    14 1   
     9     4     5 2   
    10     4    15 1   
    11     5     6 1   
    12     5    12 1   
    13     6    11 1   
    14     7     8 2   
    15     7    11 1   
    16     7    16 1   
    17     8    17 1   
    18     9    18 1   
    19    10    18 1   
@<TRIPOS>SUBSTRUCTURE
     1 A1A         1 TEMP              0 ****  ****    0 ROOT
