@<TRIPOS>MOLECULE
A1A
   33    34     1     0     0
SMALL
No Charge or Current Charge


@<TRIPOS>ATOM
      1 C10         22.3450   -22.6410   -24.6900 c6         1 A1A      -0.092400
      2 C13         22.9310   -25.3230   -25.3260 ca         1 A1A       0.021600
      3 C15         24.7690   -26.8660   -25.8470 ca         1 A1A      -0.100000
      4 C17         25.1250   -25.0670   -24.2570 ca         1 A1A      -0.091000
      5 C01         21.4330   -30.5210   -24.8610 c3         1 A1A      -0.078100
      6 C02         20.8240   -29.3570   -24.0490 c3         1 A1A      -0.162400
      7 C03         20.1520   -28.3240   -24.9620 c          1 A1A       0.610100
      8 C09         21.1560   -23.5450   -25.0920 c6         1 A1A       0.105000
      9 C11         23.2910   -23.3900   -23.7320 c6         1 A1A      -0.031100
     10 C12         23.7930   -24.6470   -24.4310 ca         1 A1A      -0.093300
     11 C14         23.4380   -26.4500   -26.0190 ca         1 A1A      -0.126000
     12 C16         25.6120   -26.1790   -24.9620 ca         1 A1A      -0.112000
     13 N05         20.8530   -27.1500   -25.0910 ns         1 A1A      -0.449500
     14 N08         21.5100   -24.9770   -25.3310 n          1 A1A      -0.272000
     15 O04         19.0570   -28.5260   -25.4630 o          1 A1A      -0.500100
     16 S07         18.8850   -25.4700   -25.8140 s          1 A1A      -0.528400
     17 H101        22.9010   -22.3460   -25.5910 hc         1 A1A       0.057700
     18 H102        21.9770   -21.7150   -24.2290 hc         1 A1A       0.057700
     19 H151        25.1460   -27.7250   -26.3980 ha         1 A1A       0.121000
     20 H171        25.7860   -24.5280   -23.5820 ha         1 A1A       0.119000
     21 H011        21.9060   -31.2500   -24.1920 hc         1 A1A       0.046367
     22 H012        20.6590   -31.0400   -25.4400 hc         1 A1A       0.046367
     23 H013        22.1950   -30.1510   -25.5590 hc         1 A1A       0.046367
     24 H022        21.6310   -28.8880   -23.4720 hc         1 A1A       0.059200
     25 H021        20.0720   -29.7710   -23.3670 hc         1 A1A       0.059200
     26 H092        20.6740   -23.1310   -25.9900 h1         1 A1A       0.074200
     27 H091        20.4130   -23.5100   -24.2820 h1         1 A1A       0.074200
     28 H111        24.1290   -22.7380   -23.4500 hc         1 A1A       0.058700
     29 H112        22.7660   -23.6580   -22.8040 hc         1 A1A       0.058700
     30 H141        22.8120   -26.9950   -26.7220 ha         1 A1A       0.131000
     31 H161        26.6420   -26.5010   -24.8280 ha         1 A1A       0.120000
     32 H051        21.7900   -27.1900   -24.7180 hn         1 A1A       0.316500
     33 C06         20.4730   -25.8960   -25.4820 cs         1 A1A       0.453400
@<TRIPOS>BOND
     1     1     8 1   
     2     1     9 1   
     3     1    17 1   
     4     1    18 1   
     5     2    10 ar  
     6     2    11 ar  
     7     2    14 1   
     8     3    11 ar  
     9     3    12 ar  
    10     3    19 1   
    11     4    10 ar  
    12     4    12 ar  
    13     4    20 1   
    14     5     6 1   
    15     5    21 1   
    16     5    22 1   
    17     5    23 1   
    18     6     7 1   
    19     6    24 1   
    20     6    25 1   
    21     7    13 1   
    22     7    15 2   
    23     8    14 1   
    24     8    26 1   
    25     8    27 1   
    26     9    10 1   
    27     9    28 1   
    28     9    29 1   
    29    11    30 1   
    30    12    31 1   
    31    13    32 1   
    32    13    33 1   
    33    14    33 1   
    34    16    33 2   
@<TRIPOS>SUBSTRUCTURE
     1 A1A         1 TEMP              0 ****  ****    0 ROOT
