@<TRIPOS>MOLECULE
A1A
   34    37     1     0     0
SMALL
No Charge or Current Charge


@<TRIPOS>ATOM
      1 C13         44.4260   -15.2360   -30.2490 c5         1 A1A      -0.171400
      2 C17         43.6790   -16.4350   -26.1690 ca         1 A1A      -0.181300
      3 C01         40.2860   -15.2590   -24.7970 c3         1 A1A      -0.041800
      4 C02         41.7880   -15.4350   -24.9680 ca         1 A1A      -0.109300
      5 C03         42.6820   -14.7720   -24.1090 ca         1 A1A      -0.071000
      6 C04         44.0660   -14.9370   -24.2740 ca         1 A1A      -0.138000
      7 C05         44.5670   -15.7530   -25.3000 ca         1 A1A       0.142100
      8 C07         46.4910   -16.3570   -26.6500 c6         1 A1A       0.160600
      9 C08         45.7150   -17.5900   -27.1510 c5         1 A1A      -0.145700
     10 C09         46.0910   -18.0380   -28.5890 c5         1 A1A       0.105000
     11 C12         43.9080   -15.3990   -28.7940 c5         1 A1A       0.125800
     12 C14         45.5970   -16.2110   -30.2390 c          1 A1A       0.561000
     13 C16         44.1680   -17.3770   -27.2790 c5         1 A1A       0.201800
     14 C18         42.2910   -16.2630   -25.9880 ca         1 A1A      -0.061000
     15 N10         45.1520   -17.1930   -29.3410 n          1 A1A      -0.292200
     16 N11         43.9340   -16.8950   -28.6850 n3         1 A1A      -0.432600
     17 O06         45.9330   -15.8820   -25.4140 os         1 A1A      -0.336100
     18 O15         46.7570   -16.0520   -30.5960 o          1 A1A      -0.538000
     19 H132        44.7320   -14.2240   -30.5290 hc         1 A1A       0.083700
     20 H131        43.6530   -15.6150   -30.9260 hc         1 A1A       0.083700
     21 H011        40.0250   -15.0180   -23.7590 hc         1 A1A       0.042367
     22 H012        39.9140   -14.4480   -25.4330 hc         1 A1A       0.042367
     23 H013        39.7440   -16.1730   -25.0670 hc         1 A1A       0.042367
     24 H031        42.3060   -14.1310   -23.3140 ha         1 A1A       0.116000
     25 H041        44.7560   -14.4260   -23.6080 ha         1 A1A       0.130000
     26 H072        47.5490   -16.6070   -26.4900 h1         1 A1A       0.060200
     27 H071        46.4550   -15.5460   -27.3890 h1         1 A1A       0.060200
     28 H081        45.9420   -18.3780   -26.4240 hc         1 A1A       0.087700
     29 H091        45.8730   -19.1010   -28.7590 h1         1 A1A       0.071200
     30 H092        47.1460   -17.8520   -28.8310 h1         1 A1A       0.071200
     31 H122        44.5820   -14.8970   -28.0890 h1         1 A1A       0.060200
     32 H121        42.8990   -14.9890   -28.6530 h1         1 A1A       0.060200
     33 H161        43.6750   -18.3530   -27.1620 h1         1 A1A       0.092700
     34 H181        41.5980   -16.7800   -26.6500 ha         1 A1A       0.118000
@<TRIPOS>BOND
     1     1    11 1   
     2     1    12 1   
     3     1    19 1   
     4     1    20 1   
     5     2     7 ar  
     6     2    13 1   
     7     2    14 ar  
     8     3     4 1   
     9     3    21 1   
    10     3    22 1   
    11     3    23 1   
    12     4     5 ar  
    13     4    14 ar  
    14     5     6 ar  
    15     5    24 1   
    16     6     7 ar  
    17     6    25 1   
    18     7    17 1   
    19     8     9 1   
    20     8    17 1   
    21     8    26 1   
    22     8    27 1   
    23     9    10 1   
    24     9    13 1   
    25     9    28 1   
    26    10    15 1   
    27    10    29 1   
    28    10    30 1   
    29    11    16 1   
    30    11    31 1   
    31    11    32 1   
    32    12    15 1   
    33    12    18 2   
    34    13    16 1   
    35    13    33 1   
    36    14    34 1   
    37    15    16 1   
@<TRIPOS>SUBSTRUCTURE
     1 A1A         1 TEMP              0 ****  ****    0 ROOT
