@<TRIPOS>MOLECULE
A1A
   40    42     1     0     0
SMALL
No Charge or Current Charge


@<TRIPOS>ATOM
      1 C10        -54.5390    30.2130    -4.0450 c5         1 A1A       0.158300
      2 C13        -53.6190    33.1310    -5.9270 ca         1 A1A      -0.089300
      3 C15        -53.5710    33.2840    -7.3290 ca         1 A1A      -0.076000
      4 C17        -53.9660    30.8850    -7.6300 ca         1 A1A      -0.050000
      5 C21        -54.1880    27.1930    -7.3100 c3         1 A1A      -0.178100
      6 C01        -57.1060    32.5500    -0.4860 c3         1 A1A      -0.122100
      7 C02        -58.1520    31.9130    -1.4250 c3         1 A1A       0.166600
      8 C06        -56.0880    30.3810    -4.1510 c5         1 A1A      -0.174700
      9 C07        -56.5470    29.0740    -4.8430 c5         1 A1A       0.119000
     10 C09        -54.1770    29.4980    -5.3960 c5         1 A1A       0.142000
     11 C12        -53.8430    31.8430    -5.4120 ca         1 A1A       0.110100
     12 C14        -53.4540    34.3260    -4.9990 c3         1 A1A      -0.036800
     13 C16        -53.7490    32.1670    -8.1730 ca         1 A1A      -0.140000
     14 C18        -54.0000    30.7420    -6.2320 ca         1 A1A      -0.186300
     15 N08        -55.4210    28.7810    -5.7570 n          1 A1A      -0.415800
     16 O11        -53.9570    31.5580    -4.0750 os         1 A1A      -0.307100
     17 O20        -56.5510    27.1760    -6.9330 o          1 A1A      -0.593100
     18 H101       -54.2140    29.6510    -3.1580 h1         1 A1A       0.110700
     19 H151       -53.4040    34.2660    -7.7670 ha         1 A1A       0.115000
     20 H171       -54.1090    30.0370    -8.2930 ha         1 A1A       0.118000
     21 H211       -54.3770    26.4530    -8.0960 hc         1 A1A       0.062700
     22 H212       -53.5560    28.0120    -7.6620 hc         1 A1A       0.062700
     23 H213       -53.5770    26.7530    -6.5150 hc         1 A1A       0.062700
     24 H011       -57.5870    32.8870     0.4390 hc         1 A1A       0.049367
     25 H012       -56.3210    31.8330    -0.2170 hc         1 A1A       0.049367
     26 H013       -56.6380    33.4190    -0.9640 hc         1 A1A       0.049367
     27 H022       -58.9550    32.6430    -1.5950 h1         1 A1A       0.060700
     28 H021       -58.6020    31.0270    -0.9560 h1         1 A1A       0.060700
     29 H061       -56.3810    31.2500    -4.7500 hc         1 A1A       0.102700
     30 H071       -57.4950    29.2100    -5.3810 h1         1 A1A       0.068700
     31 H072       -56.6750    28.2500    -4.1270 h1         1 A1A       0.068700
     32 H091       -53.2760    28.8730    -5.3300 h1         1 A1A       0.082700
     33 H141       -54.3550    34.4760    -4.3920 hc         1 A1A       0.046700
     34 H142       -52.6100    34.1770    -4.3160 hc         1 A1A       0.046700
     35 H143       -53.2700    35.2520    -5.5560 hc         1 A1A       0.046700
     36 H161       -53.7190    32.2970    -9.2530 ha         1 A1A       0.118000
     37 C04        -56.7080    30.4810    -2.7520 c          1 A1A       0.606100
     38 C19        -55.4820    27.7130    -6.6760 c          1 A1A       0.609100
     39 O03        -57.5170    31.5870    -2.6770 os         1 A1A      -0.447100
     40 O05        -56.5330    29.6920    -1.8330 o          1 A1A      -0.476000
@<TRIPOS>BOND
     1     1     8 1   
     2     1    10 1   
     3     1    16 1   
     4     1    18 1   
     5     2     3 ar  
     6     2    11 ar  
     7     2    12 1   
     8     3    13 ar  
     9     3    19 1   
    10     4    13 ar  
    11     4    14 ar  
    12     4    20 1   
    13     5    21 1   
    14     5    22 1   
    15     5    23 1   
    16     5    38 1   
    17     6     7 1   
    18     6    24 1   
    19     6    25 1   
    20     6    26 1   
    21     7    27 1   
    22     7    28 1   
    23     7    39 1   
    24     8     9 1   
    25     8    29 1   
    26     8    37 1   
    27     9    15 1   
    28     9    30 1   
    29     9    31 1   
    30    10    14 1   
    31    10    15 1   
    32    10    32 1   
    33    11    14 ar  
    34    11    16 1   
    35    12    33 1   
    36    12    34 1   
    37    12    35 1   
    38    13    36 1   
    39    15    38 1   
    40    17    38 2   
    41    37    39 1   
    42    37    40 2   
@<TRIPOS>SUBSTRUCTURE
     1 A1A         1 TEMP              0 ****  ****    0 ROOT
