@<TRIPOS>MOLECULE
A1A
   20    21     1     0     0
SMALL
No Charge or Current Charge


@<TRIPOS>ATOM
      1 C10         42.0430   -15.1470   -24.8380 ca         1 A1A      -0.016000
      2 C02         43.7410   -16.2090   -26.3950 c          1 A1A       0.600700
      3 C03         45.1720   -16.7340   -26.5260 c6         1 A1A      -0.150600
      4 C04         45.7260   -17.1850   -25.1640 c6         1 A1A       0.175600
      5 C06         44.2680   -15.6540   -23.9950 ca         1 A1A       0.176100
      6 C07         43.9290   -15.0910   -22.7560 ca         1 A1A      -0.154000
      7 C08         42.6430   -14.5670   -22.5480 ca         1 A1A      -0.044000
      8 C09         41.7000   -14.6000   -23.5880 ca         1 A1A      -0.156000
      9 C11         43.3350   -15.6760   -25.0490 ca         1 A1A      -0.263600
     10 C12         45.2900   -17.8060   -27.5240 c1         1 A1A       0.307900
     11 N13         45.4160   -18.6670   -28.2970 n1         1 A1A      -0.428000
     12 O01         42.9770   -16.1660   -27.3530 o          1 A1A      -0.490100
     13 O05         45.5290   -16.1690   -24.1640 os         1 A1A      -0.332100
     14 H101        41.3040   -15.1490   -25.6380 ha         1 A1A       0.135000
     15 H1          45.7780   -15.8920   -26.8790 hc         1 A1A       0.112700
     16 H041        45.2130   -18.1000   -24.8320 h1         1 A1A       0.073700
     17 H2          46.8000   -17.4100   -25.2360 h1         1 A1A       0.073700
     18 H071        44.6620   -15.0710   -21.9530 ha         1 A1A       0.135000
     19 H081        42.3780   -14.1360   -21.5840 ha         1 A1A       0.120000
     20 H091        40.7040   -14.1930   -23.4300 ha         1 A1A       0.125000
@<TRIPOS>BOND
     1     1     8 ar  
     2     1     9 ar  
     3     1    14 1   
     4     2     3 1   
     5     2     9 1   
     6     2    12 2   
     7     3     4 1   
     8     3    10 1   
     9     3    15 1   
    10     4    13 1   
    11     4    16 1   
    12     4    17 1   
    13     5     6 ar  
    14     5     9 ar  
    15     5    13 1   
    16     6     7 ar  
    17     6    18 1   
    18     7     8 ar  
    19     7    19 1   
    20     8    20 1   
    21    10    11 3   
@<TRIPOS>SUBSTRUCTURE
     1 A1A         1 TEMP              0 ****  ****    0 ROOT
