@<TRIPOS>MOLECULE
A1A
   41    43     1     0     0
SMALL
No Charge or Current Charge


@<TRIPOS>ATOM
      1 N1         -53.4990    30.1130    -7.2760 n          1 A1A      -0.398800
      2 C4         -55.9880    25.7480    -7.3530 ca         1 A1A      -0.088000
      3 C5         -55.5300    24.5100    -7.8370 ca         1 A1A      -0.113000
      4 C6         -54.4000    23.9030    -7.2630 ca         1 A1A      -0.102000
      5 C7         -53.7280    24.5360    -6.2030 ca         1 A1A      -0.113000
      6 C8         -54.1860    25.7740    -5.7190 ca         1 A1A      -0.088000
      7 C10        -53.8090    32.1680    -8.7340 c3         1 A1A      -0.092400
      8 C13        -53.5100    34.2820    -5.5470 c          1 A1A       0.562000
      9 C15        -53.0830    31.7470    -5.3930 c3         1 A1A      -0.088400
     10 C1         -54.5630    29.1890    -7.2260 c          1 A1A       0.636100
     11 C11        -54.2220    32.9200    -7.4380 c5         1 A1A      -0.075700
     12 C12        -54.5740    34.4200    -7.6640 c5         1 A1A       0.102000
     13 C14        -53.1440    33.0020    -6.3130 c5         1 A1A      -0.150700
     14 C16        -52.6600    30.4400    -6.0960 c3         1 A1A       0.113000
     15 C2         -55.8110    27.7320    -5.7590 c3         1 A1A       0.227900
     16 C3         -55.3180    26.3880    -6.2910 ca         1 A1A      -0.119300
     17 C9         -53.1430    30.7840    -8.5440 c3         1 A1A       0.114000
     18 N2         -54.4220    34.9490    -6.3140 ns         1 A1A      -0.513900
     19 O1         -55.2500    28.9060    -8.1980 o          1 A1A      -0.535000
     20 O2         -54.7910    28.7270    -5.9580 os         1 A1A      -0.454100
     21 O3         -53.1960    34.6250    -4.4180 o          1 A1A      -0.554000
     22 H4         -56.0500    24.0210    -8.6580 ha         1 A1A       0.112500
     23 H5         -54.0460    22.9460    -7.6380 ha         1 A1A       0.112000
     24 H6         -52.8530    24.0680    -5.7580 ha         1 A1A       0.112500
     25 H7         -53.6590    26.2590    -4.8990 ha         1 A1A       0.115000
     26 H10        -53.1310    32.7880    -9.3320 hc         1 A1A       0.054200
     27 H11        -54.7060    32.0280    -9.3510 hc         1 A1A       0.054200
     28 H17        -52.3810    31.9280    -4.5690 hc         1 A1A       0.065200
     29 H18        -54.0620    31.5860    -4.9260 hc         1 A1A       0.065200
     30 H12        -55.1130    32.4080    -7.0510 hc         1 A1A       0.067700
     31 H14        -53.8710    34.9010    -8.3570 h1         1 A1A       0.044700
     32 H13        -55.5910    34.5470    -8.0590 h1         1 A1A       0.044700
     33 H16        -52.1510    33.1660    -6.7470 hc         1 A1A       0.073700
     34 H19        -52.6680    29.6160    -5.3710 h1         1 A1A       0.058200
     35 H20        -51.6180    30.5460    -6.4250 h1         1 A1A       0.058200
     36 H1         -56.0240    27.6240    -4.6870 h1         1 A1A       0.066200
     37 H2         -56.7510    28.0230    -6.2480 h1         1 A1A       0.066200
     38 H8         -53.3850    30.1390    -9.3980 h1         1 A1A       0.058200
     39 H9         -52.0550    30.9250    -8.5610 h1         1 A1A       0.058200
     40 H15        -54.8130    35.8170    -5.9670 hn         1 A1A       0.328500
     41 H3         -56.8620    26.2100    -7.8070 ha         1 A1A       0.115000
@<TRIPOS>BOND
     1     1    10 1   
     2     1    14 1   
     3     1    17 1   
     4     2     3 ar  
     5     2    16 ar  
     6     2    41 1   
     7     3     4 ar  
     8     3    22 1   
     9     4     5 ar  
    10     4    23 1   
    11     5     6 ar  
    12     5    24 1   
    13     6    16 ar  
    14     6    25 1   
    15     7    11 1   
    16     7    17 1   
    17     7    26 1   
    18     7    27 1   
    19     8    13 1   
    20     8    18 1   
    21     8    21 2   
    22     9    13 1   
    23     9    14 1   
    24     9    28 1   
    25     9    29 1   
    26    10    19 2   
    27    10    20 1   
    28    11    12 1   
    29    11    13 1   
    30    11    30 1   
    31    12    18 1   
    32    12    31 1   
    33    12    32 1   
    34    13    33 1   
    35    14    34 1   
    36    14    35 1   
    37    15    16 1   
    38    15    20 1   
    39    15    36 1   
    40    15    37 1   
    41    17    38 1   
    42    17    39 1   
    43    18    40 1   
@<TRIPOS>SUBSTRUCTURE
     1 A1A         1 TEMP              0 ****  ****    0 ROOT
