@<TRIPOS>MOLECULE
A1A
   47    49     1     0     0
SMALL
abcg2


@<TRIPOS>ATOM
      1 N1         207.9090   176.1190   225.4710 ns         1 A1A      -0.144000
      2 C4         211.9920   175.5520   224.6590 ca         1 A1A      -0.155000
      3 C5         211.0250   174.7370   224.0930 ca         1 A1A      -0.041000
      4 C6         209.6780   174.9190   224.3790 ca         1 A1A      -0.178000
      5 C7         208.4120   172.4990   224.8600 c3         1 A1A       0.069600
      6 C8         207.4110   171.4560   224.4020 c3         1 A1A      -0.083100
      7 C10        205.7590   176.8590   226.2800 c3         1 A1A      -0.175400
      8 C13        206.4710   173.0860   228.4390 ca         1 A1A      -0.165600
      9 C15        206.4220   175.1980   229.4520 c5         1 A1A       0.141300
     10 C17        207.3690   171.0700   229.3150 ca         1 A1A      -0.123000
     11 C20        203.6630   176.3340   227.5900 c3         1 A1A      -0.111100
     12 C1         209.2730   175.9550   225.2440 ca         1 A1A       0.024000
     13 C11        205.1820   176.4440   227.6350 c3         1 A1A       0.141700
     14 C12        205.8010   174.0270   227.5170 c          1 A1A       0.578600
     15 C14        206.8420   173.7700   229.5840 ca         1 A1A      -0.079300
     16 C16        206.7210   171.7320   228.2820 ca         1 A1A      -0.042000
     17 C18        207.7490   171.7570   230.4690 ca         1 A1A      -0.086000
     18 C19        207.4890   173.1150   230.6180 ca         1 A1A      -0.098000
     19 C2         210.2540   176.7730   225.8090 ca         1 A1A      -0.153000
     20 C3         211.5940   176.5660   225.5170 ca         1 A1A      -0.062000
     21 C9         207.2690   176.9420   226.3430 c          1 A1A       0.616100
     22 N2         205.8070   175.2310   228.1390 n          1 A1A      -0.422800
     23 O1         207.8310   177.6840   227.1290 o          1 A1A      -0.597100
     24 O2         205.3330   173.7760   226.4170 o          1 A1A      -0.557000
     25 H5         207.3220   175.5160   224.9080 hn         1 A1A       0.182000
     26 H3         213.0380   175.3990   224.4310 ha         1 A1A       0.117000
     27 H4         211.3110   173.9400   223.4190 ha         1 A1A       0.123000
     28 H7         209.4090   172.0700   224.9600 h1         1 A1A       0.061200
     29 H6         208.1230   172.9250   225.8200 h1         1 A1A       0.061200
     30 H10        207.3760   170.6390   225.1240 hc         1 A1A       0.045700
     31 H8         206.4080   171.8740   224.3240 hc         1 A1A       0.045700
     32 H9         207.6840   171.0330   223.4350 hc         1 A1A       0.045700
     33 H12        205.3770   177.8540   226.0400 hc         1 A1A       0.080200
     34 H11        205.4130   176.1860   225.4960 hc         1 A1A       0.080200
     35 H15        207.2710   175.8860   229.5060 h1         1 A1A       0.069200
     36 H14        205.7100   175.4900   230.2300 h1         1 A1A       0.069200
     37 H17        207.5820   170.0130   229.2300 ha         1 A1A       0.118000
     38 H20        203.2680   176.0740   228.5710 hc         1 A1A       0.048700
     39 HC20       203.2300   177.2920   227.2980 hc         1 A1A       0.048700
     40 H21        203.3350   175.5830   226.8730 hc         1 A1A       0.048700
     41 H13        205.4410   177.2220   228.3550 h1         1 A1A       0.065700
     42 H16        206.4170   171.2070   227.3860 ha         1 A1A       0.132000
     43 H18        208.2530   171.2220   231.2630 ha         1 A1A       0.116000
     44 H19        207.7860   173.6370   231.5190 ha         1 A1A       0.122000
     45 H1         209.9770   177.5750   226.4740 ha         1 A1A       0.148000
     46 H2         212.3320   177.2150   225.9690 ha         1 A1A       0.114000
     47 S1         208.4890   173.8420   223.6220 ss         1 A1A      -0.242000
@<TRIPOS>BOND
     1     1    12 1   
     2     1    21 1   
     3     1    25 1   
     4     2     3 ar  
     5     2    20 ar  
     6     2    26 1   
     7     3     4 ar  
     8     3    27 1   
     9     4    12 ar  
    10     4    47 1   
    11     5     6 1   
    12     5    28 1   
    13     5    29 1   
    14     5    47 1   
    15     6    30 1   
    16     6    31 1   
    17     6    32 1   
    18     7    13 1   
    19     7    21 1   
    20     7    33 1   
    21     7    34 1   
    22     8    14 1   
    23     8    15 ar  
    24     8    16 ar  
    25     9    15 1   
    26     9    22 1   
    27     9    35 1   
    28     9    36 1   
    29    10    16 ar  
    30    10    17 ar  
    31    10    37 1   
    32    11    13 1   
    33    11    38 1   
    34    11    39 1   
    35    11    40 1   
    36    12    19 ar  
    37    13    22 1   
    38    13    41 1   
    39    14    22 1   
    40    14    24 2   
    41    15    18 ar  
    42    16    42 1   
    43    17    18 ar  
    44    17    43 1   
    45    18    44 1   
    46    19    20 ar  
    47    19    45 1   
    48    20    46 1   
    49    21    23 2   
@<TRIPOS>SUBSTRUCTURE
     1 A1A         1 TEMP              0 ****  ****    0 ROOT
