@<TRIPOS>MOLECULE
A1A
   69    72     1     0     0
SMALL
abcg2


@<TRIPOS>ATOM
      1 C2          74.6240    47.2300    22.5540 c5         1 A1A       0.035700
      2 C3          73.4290    46.6550    21.7830 c5         1 A1A      -0.130400
      3 C12         76.7100    50.0800    21.1110 c3         1 A1A       0.056700
      4 C14         77.9680    49.6090    20.3290 c3         1 A1A      -0.046000
      5 C15         77.5950    48.3980    19.4700 c3         1 A1A      -0.089767
      6 C16         78.4050    50.7420    19.3930 c3         1 A1A      -0.089767
      7 C17         79.1350    49.2270    21.2410 c3         1 A1A      -0.089767
      8 C19         76.3940    53.1560    23.2820 c3         1 A1A      -0.174100
      9 C22         75.8580    43.0730    23.8810 ca         1 A1A      -0.080300
     10 C23         74.6750    42.9580    23.2060 ca         1 A1A      -0.103000
     11 C24         76.6140    41.8940    24.1450 ca         1 A1A      -0.029000
     12 C25         76.1360    40.6230    23.7100 ca         1 A1A      -0.011000
     13 C26         74.8870    40.5450    23.0200 ca         1 A1A      -0.098500
     14 C27         74.1960    41.7070    22.7820 ca         1 A1A      -0.097000
     15 C28         74.3010    39.2870    22.5370 cc         1 A1A       0.301500
     16 C29         73.6340    39.0940    21.3070 cc         1 A1A      -0.216000
     17 C30         73.2280    37.7830    21.3340 cd         1 A1A      -0.176000
     18 C10         76.1680    49.0140    22.0670 c          1 A1A       0.611100
     19 C33         77.8510    41.9550    24.8340 ca         1 A1A      -0.109000
     20 C34         78.5920    40.8300    25.0690 ca         1 A1A      -0.103000
     21 C35         78.1340    39.5810    24.6160 ca         1 A1A      -0.114000
     22 C36         76.9400    39.4830    23.9550 ca         1 A1A      -0.085000
     23 C4          72.9350    47.8440    20.9680 c5         1 A1A       0.152300
     24 C5          74.2380    48.4890    20.5310 c5         1 A1A       0.113000
     25 C6          75.6690    46.1520    22.8020 c          1 A1A       0.603100
     26 N1          75.1170    48.2730    21.6750 n          1 A1A      -0.384800
     27 N13         76.9760    51.2810    21.8660 ns         1 A1A      -0.493900
     28 N31         73.6450    37.2850    22.5090 na         1 A1A      -0.001200
     29 N32         74.2910    38.1700    23.2530 nd         1 A1A      -0.514800
     30 N9          75.5620    45.5370    23.9920 ns         1 A1A      -0.502900
     31 O11         76.6950    48.8310    23.1560 o          1 A1A      -0.610100
     32 O20         74.8130    51.6020    22.3790 o          1 A1A      -0.607100
     33 O7          72.2380    48.7760    21.7620 oh         1 A1A      -0.638000
     34 O8          76.4860    45.8270    21.9570 o          1 A1A      -0.590100
     35 H1          74.2930    47.6590    23.5060 h1         1 A1A       0.076700
     36 H2          72.6690    46.2350    22.4430 hc         1 A1A       0.063200
     37 H3          73.7520    45.8620    21.1040 hc         1 A1A       0.063200
     38 H4          75.9600    50.3180    20.3530 h1         1 A1A       0.068700
     39 H5          77.2800    47.5430    20.0680 hc         1 A1A       0.040589
     40 H6          76.7930    48.6370    18.7680 hc         1 A1A       0.040589
     41 H7          78.4600    48.0860    18.8820 hc         1 A1A       0.040589
     42 H8          78.7630    51.6190    19.9330 hc         1 A1A       0.040589
     43 H9          79.2220    50.4000    18.7560 hc         1 A1A       0.040589
     44 H10         77.5850    51.0570    18.7440 hc         1 A1A       0.040589
     45 H11         79.4470    50.0430    21.8960 hc         1 A1A       0.040589
     46 H12         78.9060    48.3650    21.8650 hc         1 A1A       0.040589
     47 H13         79.9990    48.9680    20.6270 hc         1 A1A       0.040589
     48 H14         75.8620    54.0340    22.9180 hc         1 A1A       0.059367
     49 H15         76.1040    53.0100    24.3230 hc         1 A1A       0.059367
     50 H16         77.4630    53.3610    23.2490 hc         1 A1A       0.059367
     51 H17         77.3870    44.5750    23.9790 h1         1 A1A       0.067200
     52 H18         76.4580    44.4050    25.4490 h1         1 A1A       0.067200
     53 H19         74.0730    43.8330    23.0010 ha         1 A1A       0.108000
     54 H20         73.2430    41.6660    22.2690 ha         1 A1A       0.112000
     55 H21         73.4900    39.8080    20.5140 ha         1 A1A       0.148000
     56 H22         72.6900    37.1830    20.6180 h4         1 A1A       0.154000
     57 H23         78.2270    42.9070    25.1820 ha         1 A1A       0.110000
     58 H24         79.5340    40.9020    25.5980 ha         1 A1A       0.112000
     59 H25         78.7290    38.6930    24.7880 ha         1 A1A       0.112000
     60 H26         76.6000    38.5150    23.6190 ha         1 A1A       0.128000
     61 H27         72.3420    47.5260    20.1020 h1         1 A1A       0.048700
     62 H28         74.6180    47.9960    19.6330 h1         1 A1A       0.066700
     63 H29         74.1070    49.5480    20.3140 h1         1 A1A       0.066700
     64 H30         77.9290    51.5520    22.0450 hn         1 A1A       0.322500
     65 H31         73.5110    36.3480    22.8540 hn         1 A1A       0.372000
     66 H32         74.8580    45.8450    24.6440 hn         1 A1A       0.316500
     67 H33         71.4710    48.3370    22.1420 ho         1 A1A       0.441000
     68 C18         75.9830    51.9500    22.4760 c          1 A1A       0.597100
     69 C21         76.3770    44.4110    24.3600 c3         1 A1A       0.147300
@<TRIPOS>BOND
     1     1     2 1   
     2     1    25 1   
     3     1    26 1   
     4     1    35 1   
     5     2    23 1   
     6     2    36 1   
     7     2    37 1   
     8     3     4 1   
     9     3    18 1   
    10     3    27 1   
    11     3    38 1   
    12     4     5 1   
    13     4     6 1   
    14     4     7 1   
    15     5    39 1   
    16     5    40 1   
    17     5    41 1   
    18     6    42 1   
    19     6    43 1   
    20     6    44 1   
    21     7    45 1   
    22     7    46 1   
    23     7    47 1   
    24     8    48 1   
    25     8    49 1   
    26     8    50 1   
    27     8    68 1   
    28     9    10 ar  
    29     9    11 ar  
    30     9    69 1   
    31    10    14 ar  
    32    10    53 1   
    33    11    12 ar  
    34    11    19 ar  
    35    12    13 ar  
    36    12    22 ar  
    37    13    14 ar  
    38    13    15 1   
    39    14    54 1   
    40    15    16 1   
    41    15    29 2   
    42    16    17 2   
    43    16    55 1   
    44    17    28 1   
    45    17    56 1   
    46    18    26 1   
    47    18    31 2   
    48    19    20 ar  
    49    19    57 1   
    50    20    21 ar  
    51    20    58 1   
    52    21    22 ar  
    53    21    59 1   
    54    22    60 1   
    55    23    24 1   
    56    23    33 1   
    57    23    61 1   
    58    24    26 1   
    59    24    62 1   
    60    24    63 1   
    61    25    30 1   
    62    25    34 2   
    63    27    64 1   
    64    27    68 1   
    65    28    29 1   
    66    28    65 1   
    67    30    66 1   
    68    30    69 1   
    69    32    68 2   
    70    33    67 1   
    71    51    69 1   
    72    52    69 1   
@<TRIPOS>SUBSTRUCTURE
     1 A1A         1 TEMP              0 ****  ****    0 ROOT
