@<TRIPOS>MOLECULE
A1A
  100   105     1     0     0
SMALL
No Charge or Current Charge


@<TRIPOS>ATOM
      1 C1          14.3150    -1.8620   -21.2630 c3         1 A1A       0.095300
      2 C10         17.7860     3.8770   -24.1780 c5         1 A1A      -0.148700
      3 C12         18.2560     5.1470   -23.4400 c5         1 A1A       0.119000
      4 C14         17.2240     5.7430   -25.6080 c5         1 A1A       0.129000
      5 C15         17.8540     4.3190   -25.6690 cy         1 A1A      -0.108000
      6 C16         17.3340     3.3360   -26.7770 cy         1 A1A       0.110000
      7 C18         19.2200     4.1830   -26.4340 cy         1 A1A       0.110000
      8 C21         18.9630     3.1210   -29.5910 cx         1 A1A      -0.226700
      9 C23         19.0980     2.0460   -30.6540 cx         1 A1A      -0.085400
     10 C24         17.7710     2.7460   -30.4610 cx         1 A1A      -0.093000
     11 C25         17.2900     3.7480   -31.5080 c3         1 A1A      -0.065600
     12 C26         16.5980     1.9440   -29.8940 c3         1 A1A      -0.065600
     13 C29         17.3180     8.6640   -24.7720 cc         1 A1A      -0.270600
     14 C3          15.3740     0.0460   -22.5130 c          1 A1A       0.588100
     15 C30         17.5590    10.0210   -24.5220 cc         1 A1A       0.293900
     16 C34         14.1540     9.5620   -27.5430 ca         1 A1A      -0.120300
     17 C35         13.1480     9.3240   -26.5850 ca         1 A1A      -0.081500
     18 C36         12.0740     8.4670   -26.8830 ca         1 A1A      -0.113000
     19 C37         11.9980     7.8450   -28.1400 ca         1 A1A      -0.095000
     20 C38         12.9970     8.0800   -29.1000 ca         1 A1A      -0.113000
     21 C39         14.0720     8.9360   -28.8040 ca         1 A1A      -0.081500
     22 C40         16.4250     8.6280   -25.8120 cd         1 A1A      -0.130000
     23 C41         14.4980     0.8800   -24.7640 c3         1 A1A       0.164300
     24 C43         13.7550     2.0290   -25.4880 c3         1 A1A      -0.118100
     25 C45         15.3670    -0.0500   -26.9160 c3         1 A1A       0.162600
     26 C46         14.5550    -1.3660   -26.8790 c3         1 A1A      -0.110400
     27 C47         14.2790    -2.0060   -28.2750 c6         1 A1A      -0.057700
     28 C48         15.5840    -2.4050   -29.0280 c6         1 A1A      -0.071400
     29 C49         15.2780    -3.0600   -30.3980 c6         1 A1A      -0.072900
     30 C5          15.0810     1.3010   -23.3800 c3         1 A1A       0.030700
     31 C50         14.3400    -4.2810   -30.2430 c6         1 A1A      -0.074400
     32 C51         13.0360    -3.8880   -29.5090 c6         1 A1A      -0.072900
     33 C52         13.3420    -3.2400   -28.1360 c6         1 A1A      -0.071400
     34 C8          16.3420     3.4740   -23.7630 c          1 A1A       0.605100
     35 N13         17.7520     6.2290   -24.3110 n          1 A1A      -0.408800
     36 N17         18.3950     3.9160   -27.6560 nj         1 A1A      -0.421800
     37 N2          14.2610    -0.6500   -22.0840 ns         1 A1A      -0.510900
     38 N31         16.9140    10.8440   -25.3240 nd         1 A1A      -0.528800
     39 N32         16.2010     9.9720   -26.1360 na         1 A1A       0.132800
     40 N7          16.3120     2.1210   -23.5230 ns         1 A1A      -0.475900
     41 O4          16.5060    -0.3060   -22.2010 o          1 A1A      -0.581100
     42 O44         15.6150     0.4310   -25.5750 os         1 A1A      -0.461000
     43 O9          15.3510     4.1860   -23.6850 o          1 A1A      -0.594100
     44 H11         13.2940    -2.2220   -21.0730 h1         1 A1A       0.041367
     45 H12         14.8800    -2.6420   -21.7910 h1         1 A1A       0.041367
     46 H13         14.8050    -1.6400   -20.3060 h1         1 A1A       0.041367
     47 H101        18.4670     3.0390   -23.9880 hc         1 A1A       0.075700
     48 H122        17.8520     5.2110   -22.4200 h1         1 A1A       0.070200
     49 H121        19.3520     5.1880   -23.3770 h1         1 A1A       0.070200
     50 H142        16.1270     5.7290   -25.6060 h1         1 A1A       0.057200
     51 H141        17.5610     6.3670   -26.4460 h1         1 A1A       0.057200
     52 H162        17.4230     2.2750   -26.5050 h1         1 A1A       0.062450
     53 H161        16.3190     3.5520   -27.1270 h1         1 A1A       0.062450
     54 H181        19.7940     5.1150   -26.4940 h1         1 A1A       0.062450
     55 H182        19.8580     3.3720   -26.0600 h1         1 A1A       0.062450
     56 H211        19.4750     4.0550   -29.8180 hc         1 A1A       0.091700
     57 H231        19.6760     2.2840   -31.5440 hc         1 A1A       0.084700
     58 H232        19.1780     1.0100   -30.3330 hc         1 A1A       0.084700
     59 H252        16.7850     3.2380   -32.3380 hc         1 A1A       0.039867
     60 H251        16.5840     4.4630   -31.0710 hc         1 A1A       0.039867
     61 H253        18.1250     4.3210   -31.9300 hc         1 A1A       0.039867
     62 H262        16.0540     1.4260   -30.6940 hc         1 A1A       0.039867
     63 H263        16.9350     1.1800   -29.1850 hc         1 A1A       0.039867
     64 H261        15.8880     2.5970   -29.3740 hc         1 A1A       0.039867
     65 H301        18.2040    10.4430   -23.7610 h4         1 A1A       0.054100
     66 H332        14.9380    11.4610   -26.9080 h1         1 A1A       0.067200
     67 H331        15.9460    10.6350   -28.1040 h1         1 A1A       0.067200
     68 H351        13.2010     9.7990   -25.6070 ha         1 A1A       0.115500
     69 H361        11.3010     8.2860   -26.1390 ha         1 A1A       0.115500
     70 H371        11.1670     7.1810   -28.3700 ha         1 A1A       0.114000
     71 H381        12.9400     7.5970   -30.0740 ha         1 A1A       0.115500
     72 H391        14.8420     9.1080   -29.5540 ha         1 A1A       0.115500
     73 H401        15.9170     7.8250   -26.3300 h4         1 A1A       0.154000
     74 H411        13.7780     0.0690   -24.6000 h1         1 A1A       0.039700
     75 H432        13.1590     1.6440   -26.3240 hc         1 A1A       0.045700
     76 H431        13.0640     2.5320   -24.8010 hc         1 A1A       0.045700
     77 H433        14.4560     2.7760   -25.8770 hc         1 A1A       0.045700
     78 H452        14.8470     0.6990   -27.5260 h1         1 A1A       0.046200
     79 H451        16.3330    -0.2440   -27.3980 h1         1 A1A       0.046200
     80 H461        15.0830    -2.0840   -26.2390 hc         1 A1A       0.049200
     81 H462        13.5900    -1.1710   -26.3980 hc         1 A1A       0.049200
     82 H471        13.7550    -1.2430   -28.8680 hc         1 A1A       0.041700
     83 H481        16.2160    -1.5240   -29.1980 hc         1 A1A       0.038950
     84 H482        16.1740    -3.0980   -28.4120 hc         1 A1A       0.038950
     85 H492        14.8140    -2.3200   -31.0650 hc         1 A1A       0.038450
     86 H491        16.2150    -3.3690   -30.8810 hc         1 A1A       0.038450
     87 H51         14.3260     1.8820   -22.8360 h1         1 A1A       0.084700
     88 H501        14.1020    -4.6970   -31.2310 hc         1 A1A       0.040200
     89 H502        14.8550    -5.0750   -29.6850 hc         1 A1A       0.040200
     90 H511        12.4580    -3.1880   -30.1280 hc         1 A1A       0.038450
     91 H512        12.4050    -4.7760   -29.3690 hc         1 A1A       0.038450
     92 H521        13.8040    -3.9860   -27.4740 hc         1 A1A       0.038950
     93 H522        12.3990    -2.9430   -27.6570 hc         1 A1A       0.038950
     94 H21         13.3530    -0.2940   -22.3600 hn         1 A1A       0.310500
     95 H71         17.1890     1.6220   -23.6150 hn         1 A1A       0.332500
     96 C19         19.0030     2.7140   -28.1270 c          1 A1A       0.645100
     97 C27         17.9400     7.5860   -23.9560 c          1 A1A       0.661700
     98 C33         15.3280    10.4810   -27.2110 c3         1 A1A       0.136900
     99 O20         19.4600     1.6660   -27.6810 o          1 A1A      -0.597100
    100 O28         18.6100     7.8660   -22.9700 o          1 A1A      -0.608100
@<TRIPOS>BOND
     1     1    37 1   
     2     1    44 1   
     3     1    45 1   
     4     1    46 1   
     5     2     3 1   
     6     2     5 1   
     7     2    34 1   
     8     2    47 1   
     9     3    35 1   
    10     3    48 1   
    11     3    49 1   
    12     4     5 1   
    13     4    35 1   
    14     4    50 1   
    15     4    51 1   
    16     5     6 1   
    17     5     7 1   
    18     6    36 1   
    19     6    52 1   
    20     6    53 1   
    21     7    36 1   
    22     7    54 1   
    23     7    55 1   
    24     8     9 1   
    25     8    10 1   
    26     8    56 1   
    27     8    96 1   
    28     9    10 1   
    29     9    57 1   
    30     9    58 1   
    31    10    11 1   
    32    10    12 1   
    33    11    59 1   
    34    11    60 1   
    35    11    61 1   
    36    12    62 1   
    37    12    63 1   
    38    12    64 1   
    39    13    15 1   
    40    13    22 2   
    41    13    97 1   
    42    14    30 1   
    43    14    37 1   
    44    14    41 2   
    45    15    38 2   
    46    15    65 1   
    47    16    17 ar  
    48    16    21 ar  
    49    16    98 1   
    50    17    18 ar  
    51    17    68 1   
    52    18    19 ar  
    53    18    69 1   
    54    19    20 ar  
    55    19    70 1   
    56    20    21 ar  
    57    20    71 1   
    58    21    72 1   
    59    22    39 1   
    60    22    73 1   
    61    23    24 1   
    62    23    30 1   
    63    23    42 1   
    64    23    74 1   
    65    24    75 1   
    66    24    76 1   
    67    24    77 1   
    68    25    26 1   
    69    25    42 1   
    70    25    78 1   
    71    25    79 1   
    72    26    27 1   
    73    26    80 1   
    74    26    81 1   
    75    27    28 1   
    76    27    33 1   
    77    27    82 1   
    78    28    29 1   
    79    28    83 1   
    80    28    84 1   
    81    29    31 1   
    82    29    85 1   
    83    29    86 1   
    84    30    40 1   
    85    30    87 1   
    86    31    32 1   
    87    31    88 1   
    88    31    89 1   
    89    32    33 1   
    90    32    90 1   
    91    32    91 1   
    92    33    92 1   
    93    33    93 1   
    94    34    40 1   
    95    34    43 2   
    96    35    97 1   
    97    36    96 1   
    98    37    94 1   
    99    38    39 1   
   100    39    98 1   
   101    40    95 1   
   102    66    98 1   
   103    67    98 1   
   104    96    99 2   
   105    97   100 2   
@<TRIPOS>SUBSTRUCTURE
     1 A1A         1 TEMP              0 ****  ****    0 ROOT
