@<TRIPOS>MOLECULE
A1A
   44    45     1     0     0
SMALL
abcg2


@<TRIPOS>ATOM
      1 C01         11.9110     6.5880     9.5570 c3         1 A1A      -0.028900
      2 C02         11.3050     6.5960     8.1900 cc         1 A1A      -0.300400
      3 C03         10.0210     6.2600     7.9610 cd         1 A1A       0.041600
      4 C05          8.0400     5.8230     6.5130 c5         1 A1A       0.340700
      5 C06          7.9410     4.3340     6.1950 c5         1 A1A      -0.144400
      6 C07          7.7310     3.7280     7.5760 c5         1 A1A       0.197300
      7 C09          6.8290     4.7930     8.2050 c5         1 A1A       0.105300
      8 C10          6.7630     4.8260     9.7130 c3         1 A1A       0.239600
      9 C15          8.8810     2.9120    11.8810 c3         1 A1A      -0.837400
     10 C25         10.1670     6.5800     5.6010 c          1 A1A       0.604000
     11 C28         12.1220     6.9870     7.0620 c          1 A1A       0.585200
     12 N04          9.4440     6.2570     6.7210 n          1 A1A      -0.307000
     13 N27         11.4640     6.9470     5.8440 ns         1 A1A      -0.474500
     14 O08          7.1720     2.4600     7.5600 oh         1 A1A      -0.830000
     15 O11          8.0520     4.9720    10.2570 os         1 A1A      -0.629400
     16 O13          7.1030     4.8740    12.6530 o          1 A1A      -0.870500
     17 O14          9.5850     5.5000    12.1710 o          1 A1A      -0.870500
     18 O17          8.1930     1.4790     9.6510 o          1 A1A      -0.901000
     19 O18          6.4180     1.6890    11.5250 o          1 A1A      -0.901000
     20 O19          8.5740     0.2560    11.7690 os         1 A1A      -0.735800
     21 O21          7.4020    -1.4310    13.2990 o          1 A1A      -0.957833
     22 O22          8.2560     0.7860    14.2860 o          1 A1A      -0.957833
     23 O23          9.9230    -1.0000    13.4850 o          1 A1A      -0.957833
     24 O24          7.3150     6.0360     7.6850 os         1 A1A      -0.466000
     25 O26          9.7030     6.5450     4.4770 o          1 A1A      -0.634000
     26 O29         13.2900     7.3290     7.1210 o          1 A1A      -0.608000
     27 P12          8.3670     4.6660    11.8650 p5         1 A1A       1.446400
     28 P16          7.8720     1.5620    11.1470 p5         1 A1A       1.569400
     29 P20          8.5250    -0.4070    13.3740 p5         1 A1A       1.363900
     30 H011        12.7750     5.9240     9.6040 hc         1 A1A       0.057367
     31 H013        12.2570     7.5820     9.8460 hc         1 A1A       0.057367
     32 H012        11.1920     6.2540    10.3030 hc         1 A1A       0.057367
     33 H031         9.3760     5.9760     8.7810 h4         1 A1A       0.308000
     34 H051         7.6480     6.4510     5.7130 h2         1 A1A       0.048700
     35 H062         7.0600     4.1540     5.5720 hc         1 A1A       0.044200
     36 H061         8.8130     3.9540     5.6660 hc         1 A1A       0.044200
     37 H071         8.6910     3.7240     8.1110 h1         1 A1A       0.077700
     38 H091         5.8020     4.6310     7.8440 h1         1 A1A       0.019700
     39 H102         6.2800     3.8970    10.0340 h1         1 A1A       0.044200
     40 H101         6.1080     5.6460    10.0310 h1         1 A1A       0.044200
     41 H152         9.8830     2.8480    11.4480 hc         1 A1A       0.089700
     42 H151         8.9840     2.6520    12.9380 hc         1 A1A       0.089700
     43 H271        12.0050     7.1980     5.0250 hn         1 A1A       0.299500
     44 H081         7.4890     2.0170     8.4070 ho         1 A1A       0.637000
@<TRIPOS>BOND
     1     1     2 1   
     2     1    30 1   
     3     1    31 1   
     4     1    32 1   
     5     2     3 2   
     6     2    11 1   
     7     3    12 1   
     8     3    33 1   
     9     4     5 1   
    10     4    12 1   
    11     4    24 1   
    12     4    34 1   
    13     5     6 1   
    14     5    35 1   
    15     5    36 1   
    16     6     7 1   
    17     6    14 1   
    18     6    37 1   
    19     7     8 1   
    20     7    24 1   
    21     7    38 1   
    22     8    15 1   
    23     8    39 1   
    24     8    40 1   
    25     9    27 1   
    26     9    28 1   
    27     9    41 1   
    28     9    42 1   
    29    10    12 1   
    30    10    13 1   
    31    10    25 2   
    32    11    13 1   
    33    11    26 2   
    34    13    43 1   
    35    14    44 1   
    36    15    27 1   
    37    16    27 1   
    38    17    27 1   
    39    18    28 1   
    40    19    28 1   
    41    20    28 1   
    42    20    29 1   
    43    21    29 1   
    44    22    29 1   
    45    23    29 1   
@<TRIPOS>SUBSTRUCTURE
     1 A1A         1 TEMP              0 ****  ****    0 ROOT
