@<TRIPOS>MOLECULE
A1A
   37    39     1     0     0
SMALL
No Charge or Current Charge


@<TRIPOS>ATOM
      1 N1          44.7640   -40.9950   -27.9900 ns         1 A1A      -0.512900
      2 C4          45.9780   -40.7110   -27.2330 c5         1 A1A       0.102000
      3 C5          44.9860   -41.5110   -29.2350 c          1 A1A       0.561000
      4 C6          46.4860   -41.3440   -29.5180 c5         1 A1A      -0.150700
      5 C7          46.7710   -40.8070   -30.9480 c3         1 A1A      -0.087400
      6 C8          48.2600   -40.6880   -31.3370 c3         1 A1A       0.103000
      7 C10         48.5960   -36.6100   -32.0440 ca         1 A1A      -0.082000
      8 C13         49.7380   -37.8440   -34.2940 ca         1 A1A      -0.112500
      9 N           49.0810   -39.8930   -30.3820 n          1 A1A      -0.399800
     10 C           49.3110   -38.5030   -30.5330 c          1 A1A       0.609700
     11 O           49.6530   -37.8210   -29.5730 o          1 A1A      -0.592100
     12 C1          49.4950   -40.5850   -29.1390 c3         1 A1A       0.102000
     13 C11         48.5260   -35.9850   -33.3020 ca         1 A1A      -0.112500
     14 C12         49.0910   -36.6050   -34.4280 ca         1 A1A      -0.097000
     15 C14         49.8090   -38.4700   -33.0370 ca         1 A1A      -0.082000
     16 C2          48.4690   -40.5460   -27.9820 c3         1 A1A      -0.088400
     17 C3          46.9790   -40.3990   -28.3830 c5         1 A1A      -0.074700
     18 C9          49.2150   -37.8710   -31.9030 ca         1 A1A      -0.138600
     19 O1          44.0970   -41.8990   -29.9750 o          1 A1A      -0.554000
     20 H1          43.8200   -40.9920   -27.6230 hn         1 A1A       0.328500
     21 H3          46.2910   -41.5880   -26.6490 h1         1 A1A       0.046200
     22 H2          45.8630   -39.8620   -26.5470 h1         1 A1A       0.046200
     23 H4          46.9390   -42.3380   -29.4210 hc         1 A1A       0.075700
     24 H6          46.3060   -39.8200   -31.0670 hc         1 A1A       0.063200
     25 H5          46.2860   -41.4570   -31.6870 hc         1 A1A       0.063200
     26 H8          48.6840   -41.6980   -31.3990 h1         1 A1A       0.057200
     27 H7          48.3050   -40.2730   -32.3470 h1         1 A1A       0.057200
     28 H10         50.1930   -38.3160   -35.1620 ha         1 A1A       0.116500
     29 H042        49.6820   -41.6380   -29.3870 h1         1 A1A       0.055700
     30 H11         50.4540   -40.1770   -28.7900 h1         1 A1A       0.055700
     31 H12         48.0360   -35.0190   -33.4020 ha         1 A1A       0.116500
     32 H13         49.0380   -36.1200   -35.4010 ha         1 A1A       0.115000
     33 H14         50.3390   -39.4160   -32.9430 ha         1 A1A       0.119500
     34 H15         48.6110   -41.4510   -27.3780 hc         1 A1A       0.054200
     35 H052        48.7320   -39.7080   -27.3250 hc         1 A1A       0.054200
     36 H16         46.8410   -39.3550   -28.6920 hc         1 A1A       0.065700
     37 H9          48.1600   -36.1180   -31.1770 ha         1 A1A       0.119500
@<TRIPOS>BOND
     1     1     2 1   
     2     1     3 1   
     3     1    20 1   
     4     2    17 1   
     5     2    21 1   
     6     2    22 1   
     7     3     4 1   
     8     3    19 2   
     9     4     5 1   
    10     4    17 1   
    11     4    23 1   
    12     5     6 1   
    13     5    24 1   
    14     5    25 1   
    15     6     9 1   
    16     6    26 1   
    17     6    27 1   
    18     7    13 ar  
    19     7    18 ar  
    20     7    37 1   
    21     8    14 ar  
    22     8    15 ar  
    23     8    28 1   
    24     9    10 1   
    25     9    12 1   
    26    10    11 2   
    27    10    18 1   
    28    12    16 1   
    29    12    29 1   
    30    12    30 1   
    31    13    14 ar  
    32    13    31 1   
    33    14    32 1   
    34    15    18 ar  
    35    15    33 1   
    36    16    17 1   
    37    16    34 1   
    38    16    35 1   
    39    17    36 1   
@<TRIPOS>SUBSTRUCTURE
     1 A1A         1 TEMP              0 ****  ****    0 ROOT
