@<TRIPOS>MOLECULE
A1A
   48    50     1     0     0
SMALL
No Charge or Current Charge


@<TRIPOS>ATOM
      1 C01        165.6230   172.5660   186.9410 c3         1 A1A      -0.065900
      2 C02        167.1210   172.4400   187.0600 cc         1 A1A       0.052600
      3 C03        167.9060   172.0130   186.0110 cd         1 A1A      -0.343200
      4 C04        169.3690   171.8690   186.0620 c          1 A1A       0.676300
      5 C07        169.2640   172.6190   188.3390 ca         1 A1A       0.204100
      6 C08        167.8630   172.7560   188.2880 ca         1 A1A      -0.185800
      7 C09        167.1900   173.2040   189.4460 ca         1 A1A      -0.022000
      8 C10        167.9040   173.5060   190.6190 ca         1 A1A      -0.201000
      9 C11        169.3070   173.3670   190.6530 ca         1 A1A       0.191100
     10 C12        169.9760   172.9200   189.5070 ca         1 A1A      -0.174000
     11 C14        169.4830   174.1520   192.9790 c6         1 A1A       0.381300
     12 C15        170.5210   174.1180   194.1550 c6         1 A1A       0.100700
     13 C16        170.2670   175.2970   195.1630 c6         1 A1A       0.135300
     14 C17        168.7440   175.6590   195.2380 c6         1 A1A       0.095300
     15 C18        168.1840   176.0160   193.8100 c6         1 A1A       0.183300
     16 C20        168.0270   177.5590   193.5950 c3         1 A1A       0.172600
     17 C27        172.3400   171.7350   193.6230 c3         1 A1A      -0.181100
     18 N24        170.4640   172.8130   194.8640 ns         1 A1A      -0.517900
     19 O05        170.0190   171.4850   185.1010 o          1 A1A      -0.486000
     20 O06        169.9620   172.1880   187.2460 os         1 A1A      -0.336200
     21 O13        170.0700   173.6340   191.7710 os         1 A1A      -0.334100
     22 O19        169.0390   175.5010   192.7530 os         1 A1A      -0.440000
     23 O22        168.0120   174.5400   195.7860 oh         1 A1A      -0.718000
     24 O23        171.0520   176.4480   194.7990 oh         1 A1A      -0.634000
     25 O26        170.7290   170.5860   194.9900 o          1 A1A      -0.596100
     26 H1         165.3020   173.5980   187.1220 hc         1 A1A       0.054033
     27 H2         165.2750   172.2810   185.9410 hc         1 A1A       0.054033
     28 H3         165.1180   171.9170   187.6650 hc         1 A1A       0.054033
     29 H4         167.4780   171.7490   185.0520 ha         1 A1A       0.211000
     30 H5         166.1090   173.3240   189.4520 ha         1 A1A       0.118000
     31 H6         167.3470   173.8480   191.4860 ha         1 A1A       0.137000
     32 H7         171.0550   172.8050   189.5240 ha         1 A1A       0.150000
     33 H8         168.6200   173.5280   193.2560 h2         1 A1A       0.053700
     34 H9         171.5260   174.2550   193.7330 h1         1 A1A       0.106700
     35 H10        170.5910   174.9630   196.1610 h1         1 A1A       0.045700
     36 H11        168.6190   176.5320   195.8970 h1         1 A1A       0.042700
     37 H12        167.1860   175.5670   193.6990 h1         1 A1A       0.068700
     38 H13        169.0120   178.0260   193.7240 h1         1 A1A       0.028200
     39 H14        167.3770   177.9470   194.3910 h1         1 A1A       0.028200
     40 H15        172.8420   170.7680   193.5090 hc         1 A1A       0.066033
     41 H16        172.0550   172.1450   192.6500 hc         1 A1A       0.066033
     42 H17        173.0200   172.4970   194.0180 hc         1 A1A       0.066033
     43 H18        169.7030   172.6930   195.5240 hn         1 A1A       0.313500
     44 H19        167.5110   178.8900   192.2380 ho         1 A1A       0.508000
     45 H20        167.8370   174.7370   196.7380 ho         1 A1A       0.514000
     46 H21        171.1530   176.9980   195.6070 ho         1 A1A       0.446000
     47 O21        167.4810   177.9070   192.3070 oh         1 A1A      -0.701000
     48 C25        171.1060   171.6460   194.5200 c          1 A1A       0.613100
@<TRIPOS>BOND
     1     1     2 1   
     2     1    26 1   
     3     1    27 1   
     4     1    28 1   
     5     2     3 2   
     6     2     6 1   
     7     3     4 1   
     8     3    29 1   
     9     4    19 2   
    10     4    20 1   
    11     5     6 ar  
    12     5    10 ar  
    13     5    20 1   
    14     6     7 ar  
    15     7     8 ar  
    16     7    30 1   
    17     8     9 ar  
    18     8    31 1   
    19     9    10 ar  
    20     9    21 1   
    21    10    32 1   
    22    11    12 1   
    23    11    21 1   
    24    11    22 1   
    25    11    33 1   
    26    12    13 1   
    27    12    18 1   
    28    12    34 1   
    29    13    14 1   
    30    13    24 1   
    31    13    35 1   
    32    14    15 1   
    33    14    23 1   
    34    14    36 1   
    35    15    16 1   
    36    15    22 1   
    37    15    37 1   
    38    16    38 1   
    39    16    39 1   
    40    16    47 1   
    41    17    40 1   
    42    17    41 1   
    43    17    42 1   
    44    17    48 1   
    45    18    43 1   
    46    18    48 1   
    47    23    45 1   
    48    24    46 1   
    49    25    48 2   
    50    44    47 1   
@<TRIPOS>SUBSTRUCTURE
     1 A1A         1 TEMP              0 ****  ****    0 ROOT
