@<TRIPOS>MOLECULE
A1A
   64    67     1     0     0
SMALL
abcg2


@<TRIPOS>ATOM
      1 C10        134.7800   136.7170   168.6770 c5         1 A1A       0.107700
      2 C13        136.5480   138.1660   169.5520 c5         1 A1A      -0.075400
      3 C15        135.3010   136.5690   171.1620 c3         1 A1A      -0.026100
      4 C17        136.8380   137.3930   172.9880 ca         1 A1A      -0.108500
      5 C20        134.7530   138.7120   174.2480 ca         1 A1A      -0.109000
      6 C21        134.5220   137.9860   173.0880 ca         1 A1A      -0.108500
      7 C24        129.4220   132.4130   167.5250 c6         1 A1A       0.180300
      8 C26        131.0980   130.2980   164.4690 ca         1 A1A      -0.154500
      9 C01        127.5010   131.3590   165.2290 c3         1 A1A      -0.121100
     10 C02        128.9460   131.0060   165.5950 c3         1 A1A       0.235800
     11 C04        129.7320   133.2970   165.3120 c6         1 A1A       0.180300
     12 C05        130.7890   134.2810   165.7930 c6         1 A1A      -0.094400
     13 C06        130.5290   134.6390   167.2540 c6         1 A1A       0.140700
     14 C08        132.7600   135.5220   167.9410 c          1 A1A       0.648100
     15 C11        135.4100   137.5000   167.5260 c5         1 A1A      -0.103400
     16 C12        136.7960   137.8170   168.0730 c5         1 A1A      -0.079400
     17 C14        135.2170   137.4830   169.9390 c5         1 A1A      -0.069700
     18 C16        135.5600   137.3190   172.4390 ca         1 A1A      -0.076300
     19 C18        137.0760   138.1190   174.1490 ca         1 A1A      -0.109000
     20 C19        136.0340   138.7820   174.7820 ca         1 A1A      -0.112000
     21 C23        130.4580   133.3700   168.0990 c6         1 A1A      -0.094400
     22 C25        129.7060   130.3460   164.4580 ca         1 A1A      -0.042300
     23 C27        131.7670   129.6420   163.4500 ca         1 A1A       0.326400
     24 C29        129.8320   129.0830   162.4200 ca         1 A1A       0.326400
     25 C30        129.0710   129.7160   163.3920 ca         1 A1A      -0.154500
     26 N03        129.7240   132.1060   166.1410 n3         1 A1A      -0.739600
     27 N07        131.4170   135.6580   167.7830 ns         1 A1A      -0.522900
     28 N09        133.3510   136.5490   168.6200 ns         1 A1A      -0.509900
     29 N28        131.1580   129.0370   162.4340 nb         1 A1A      -0.665000
     30 O22        133.3970   134.5590   167.5230 o          1 A1A      -0.638100
     31 H1         135.2300   135.7210   168.7020 h1         1 A1A       0.086700
     32 H2         137.3760   137.8390   170.1840 hc         1 A1A       0.046200
     33 H3         136.4700   139.2460   169.6820 hc         1 A1A       0.046200
     34 H4         134.3620   136.0130   171.2490 hc         1 A1A       0.054200
     35 H5         136.0900   135.8310   170.9960 hc         1 A1A       0.054200
     36 H6         137.6560   136.8730   172.5040 ha         1 A1A       0.109000
     37 H7         133.9330   139.2200   174.7380 ha         1 A1A       0.111000
     38 H8         133.5180   137.9330   172.6800 ha         1 A1A       0.109000
     39 H9         128.4170   132.8560   167.6490 h1         1 A1A       0.031200
     40 H10        129.4260   131.4840   168.1010 h1         1 A1A       0.031200
     41 H12        127.0320   131.9150   166.0410 hc         1 A1A       0.040700
     42 H13        127.4420   131.9680   164.3270 hc         1 A1A       0.040700
     43 H14        126.9030   130.4630   165.0700 hc         1 A1A       0.040700
     44 H15        128.8970   130.2510   166.3890 h1         1 A1A       0.064700
     45 H16        129.9410   133.0130   164.2780 h1         1 A1A       0.031200
     46 H17        128.7520   133.8030   165.3100 h1         1 A1A       0.031200
     47 H18        131.7790   133.8380   165.6760 hc         1 A1A       0.063450
     48 H19        130.7540   135.1830   165.1770 hc         1 A1A       0.063450
     49 H20        129.5380   135.1030   167.2890 h1         1 A1A       0.034700
     50 H21        134.8440   138.4210   167.3520 hc         1 A1A       0.050200
     51 H22        135.4230   136.9370   166.5920 hc         1 A1A       0.050200
     52 H23        137.4250   136.9260   168.0000 hc         1 A1A       0.046700
     53 H24        137.3040   138.6140   167.5300 hc         1 A1A       0.046700
     54 H25        134.4640   138.2550   170.1410 hc         1 A1A       0.045700
     55 H26        138.0770   138.1640   174.5590 ha         1 A1A       0.111000
     56 H27        136.2170   139.3460   175.6880 ha         1 A1A       0.111000
     57 H28        130.1910   133.6210   169.1280 hc         1 A1A       0.063450
     58 H29        131.4320   132.8770   168.1210 hc         1 A1A       0.063450
     59 H30        132.8510   129.6040   163.4540 h4         1 A1A       0.017100
     60 H31        129.3380   128.5910   161.5890 h4         1 A1A       0.017100
     61 H32        127.9940   129.7060   163.2980 ha         1 A1A       0.131500
     62 H34        130.9650   136.4280   168.2470 hn         1 A1A       0.301500
     63 H35        132.8070   137.3810   168.7910 hn         1 A1A       0.292500
     64 H11        131.6550   130.7790   165.2610 ha         1 A1A       0.131500
@<TRIPOS>BOND
     1     1    15 1   
     2     1    17 1   
     3     1    28 1   
     4     1    31 1   
     5     2    16 1   
     6     2    17 1   
     7     2    32 1   
     8     2    33 1   
     9     3    17 1   
    10     3    18 1   
    11     3    34 1   
    12     3    35 1   
    13     4    18 ar  
    14     4    19 ar  
    15     4    36 1   
    16     5     6 ar  
    17     5    20 ar  
    18     5    37 1   
    19     6    18 ar  
    20     6    38 1   
    21     7    21 1   
    22     7    26 1   
    23     7    39 1   
    24     7    40 1   
    25     8    22 ar  
    26     8    23 ar  
    27     8    64 1   
    28     9    10 1   
    29     9    41 1   
    30     9    42 1   
    31     9    43 1   
    32    10    22 1   
    33    10    26 1   
    34    10    44 1   
    35    11    12 1   
    36    11    26 1   
    37    11    45 1   
    38    11    46 1   
    39    12    13 1   
    40    12    47 1   
    41    12    48 1   
    42    13    21 1   
    43    13    27 1   
    44    13    49 1   
    45    14    27 1   
    46    14    28 1   
    47    14    30 2   
    48    15    16 1   
    49    15    50 1   
    50    15    51 1   
    51    16    52 1   
    52    16    53 1   
    53    17    54 1   
    54    19    20 ar  
    55    19    55 1   
    56    20    56 1   
    57    21    57 1   
    58    21    58 1   
    59    22    25 ar  
    60    23    29 ar  
    61    23    59 1   
    62    24    25 ar  
    63    24    29 ar  
    64    24    60 1   
    65    25    61 1   
    66    27    62 1   
    67    28    63 1   
@<TRIPOS>SUBSTRUCTURE
     1 A1A         1 TEMP              0 ****  ****    0 ROOT
