@<TRIPOS>MOLECULE
A1A
   47    49     1     0     0
SMALL
No Charge or Current Charge


@<TRIPOS>ATOM
      1 N1         207.7530   176.3250   225.6420 ns         1 A1A      -0.144000
      2 C4         211.8850   175.4880   225.1590 ca         1 A1A      -0.155000
      3 C5         210.9110   174.5450   224.7980 ca         1 A1A      -0.041000
      4 C6         209.5440   174.8400   224.9640 ca         1 A1A      -0.178000
      5 C7         208.8400   172.0990   225.3930 c3         1 A1A       0.069600
      6 C8         207.9700   170.9030   224.9700 c3         1 A1A      -0.083100
      7 C10        205.5230   177.1440   226.2330 c3         1 A1A      -0.175400
      8 C13        206.1360   173.1040   228.0560 ca         1 A1A      -0.165600
      9 C15        206.8060   175.2210   228.9890 c5         1 A1A       0.141300
     10 C17        207.0560   170.9360   228.5640 ca         1 A1A      -0.123000
     11 C20        203.5490   176.7110   227.8530 c3         1 A1A      -0.111100
     12 C1         209.1450   176.0900   225.4860 ca         1 A1A       0.024000
     13 C11        205.0750   176.6610   227.6280 c3         1 A1A       0.141700
     14 C12        205.2920   174.1400   227.4360 c          1 A1A       0.578600
     15 C14        207.0130   173.7140   228.9340 ca         1 A1A      -0.079300
     16 C16        206.1240   171.7170   227.8520 ca         1 A1A      -0.042000
     17 C18        207.9660   171.5490   229.4560 ca         1 A1A      -0.086000
     18 C19        207.9460   172.9460   229.6480 ca         1 A1A      -0.098000
     19 C2         210.1360   177.0320   225.8450 ca         1 A1A      -0.153000
     20 C3         211.4980   176.7310   225.6820 ca         1 A1A      -0.062000
     21 C9         207.0340   177.3630   226.2140 c          1 A1A       0.616100
     22 N2         205.6900   175.3680   227.9990 n          1 A1A      -0.422800
     23 O1         207.5330   178.3810   226.6800 o          1 A1A      -0.597100
     24 O2         204.4340   173.9630   226.5830 o          1 A1A      -0.557000
     25 H5         207.1800   175.5620   225.3070 hn         1 A1A       0.182000
     26 H3         212.9400   175.2570   225.0280 ha         1 A1A       0.117000
     27 H4         211.2210   173.5900   224.3800 ha         1 A1A       0.123000
     28 H7         209.8910   171.8800   225.1700 h1         1 A1A       0.061200
     29 H6         208.7410   172.2750   226.4710 h1         1 A1A       0.061200
     30 H10        208.2430   170.0110   225.5450 hc         1 A1A       0.045700
     31 H8         206.9090   171.1150   225.1420 hc         1 A1A       0.045700
     32 H9         208.1100   170.6840   223.9050 hc         1 A1A       0.045700
     33 H12        205.0280   178.0970   226.0160 hc         1 A1A       0.080200
     34 H11        205.2330   176.3890   225.4930 hc         1 A1A       0.080200
     35 H15        207.7080   175.7640   228.6780 h1         1 A1A       0.069200
     36 H14        206.5090   175.5520   229.9930 h1         1 A1A       0.069200
     37 H17        207.0760   169.8570   228.4250 ha         1 A1A       0.118000
     38 H20        203.2980   176.3610   228.8610 hc         1 A1A       0.048700
     39 HC20       203.1820   177.7390   227.7500 hc         1 A1A       0.048700
     40 H21        203.0150   176.0890   227.1270 hc         1 A1A       0.048700
     41 H13        205.4800   177.3940   228.3410 h1         1 A1A       0.065700
     42 H16        205.4180   171.2580   227.1630 ha         1 A1A       0.132000
     43 H18        208.6830   170.9390   230.0010 ha         1 A1A       0.116000
     44 H19        208.6410   173.4200   230.3380 ha         1 A1A       0.122000
     45 H1         209.8730   178.0040   226.2500 ha         1 A1A       0.148000
     46 H2         212.2540   177.4620   225.9610 ha         1 A1A       0.114000
     47 S1         208.3160   173.6230   224.4880 ss         1 A1A      -0.242000
@<TRIPOS>BOND
     1     1    12 1   
     2     1    21 1   
     3     1    25 1   
     4     2     3 ar  
     5     2    20 ar  
     6     2    26 1   
     7     3     4 ar  
     8     3    27 1   
     9     4    12 ar  
    10     4    47 1   
    11     5     6 1   
    12     5    28 1   
    13     5    29 1   
    14     5    47 1   
    15     6    30 1   
    16     6    31 1   
    17     6    32 1   
    18     7    13 1   
    19     7    21 1   
    20     7    33 1   
    21     7    34 1   
    22     8    14 1   
    23     8    15 ar  
    24     8    16 ar  
    25     9    15 1   
    26     9    22 1   
    27     9    35 1   
    28     9    36 1   
    29    10    16 ar  
    30    10    17 ar  
    31    10    37 1   
    32    11    13 1   
    33    11    38 1   
    34    11    39 1   
    35    11    40 1   
    36    12    19 ar  
    37    13    22 1   
    38    13    41 1   
    39    14    22 1   
    40    14    24 2   
    41    15    18 ar  
    42    16    42 1   
    43    17    18 ar  
    44    17    43 1   
    45    18    44 1   
    46    19    20 ar  
    47    19    45 1   
    48    20    46 1   
    49    21    23 2   
@<TRIPOS>SUBSTRUCTURE
     1 A1A         1 TEMP              0 ****  ****    0 ROOT
