@<TRIPOS>MOLECULE
A1A
   37    39     1     0     0
SMALL
abcg2


@<TRIPOS>ATOM
      1 N1          44.8240   -40.6450   -28.1780 ns         1 A1A      -0.512900
      2 C4          46.0140   -40.2910   -27.4380 c5         1 A1A       0.102000
      3 C5          45.0550   -41.1670   -29.3930 c          1 A1A       0.561000
      4 C6          46.5590   -41.1460   -29.6290 c5         1 A1A      -0.150700
      5 C7          46.9080   -40.7260   -31.0510 c3         1 A1A      -0.087400
      6 C8          48.3930   -40.8160   -31.3680 c3         1 A1A       0.103000
      7 C10         48.2250   -37.1790   -31.8320 ca         1 A1A      -0.082000
      8 C13         49.7670   -37.6320   -34.0960 ca         1 A1A      -0.112500
      9 N           49.2370   -40.1170   -30.4070 n          1 A1A      -0.399800
     10 C           49.5600   -38.8140   -30.5040 c          1 A1A       0.609700
     11 O           50.0960   -38.1950   -29.5940 o          1 A1A      -0.592100
     12 C1          49.4870   -40.8070   -29.1500 c3         1 A1A       0.102000
     13 C11         47.9630   -36.4810   -33.0030 ca         1 A1A      -0.112500
     14 C12         48.7340   -36.7050   -34.1360 ca         1 A1A      -0.097000
     15 C14         50.0230   -38.3410   -32.9310 ca         1 A1A      -0.082000
     16 C2          48.4900   -40.4800   -28.0330 c3         1 A1A      -0.088400
     17 C3          47.0800   -40.2030   -28.5380 c5         1 A1A      -0.074700
     18 C9          49.2500   -38.1180   -31.7950 ca         1 A1A      -0.138600
     19 O1          44.2130   -41.5880   -30.1690 o          1 A1A      -0.554000
     20 H1          43.9060   -40.6490   -27.7620 hn         1 A1A       0.328500
     21 H3          46.2620   -41.0580   -26.6970 h1         1 A1A       0.046200
     22 H2          45.8850   -39.3460   -26.9100 h1         1 A1A       0.046200
     23 H4          46.9180   -42.1700   -29.4500 hc         1 A1A       0.075700
     24 H6          46.5620   -39.7000   -31.2140 hc         1 A1A       0.063200
     25 H5          46.3750   -41.3570   -31.7660 hc         1 A1A       0.063200
     26 H8          48.7080   -41.8610   -31.3750 h1         1 A1A       0.057200
     27 H7          48.5750   -40.4350   -32.3700 h1         1 A1A       0.057200
     28 H10         50.3740   -37.8070   -34.9740 ha         1 A1A       0.116500
     29 H042        49.4460   -41.8740   -29.3720 h1         1 A1A       0.055700
     30 H11         50.5030   -40.5980   -28.8140 h1         1 A1A       0.055700
     31 H12         47.1560   -35.7610   -33.0290 ha         1 A1A       0.116500
     32 H13         48.5300   -36.1580   -35.0470 ha         1 A1A       0.115000
     33 H14         50.8250   -39.0690   -32.9080 ha         1 A1A       0.119500
     34 H15         48.4780   -41.3330   -27.3490 hc         1 A1A       0.054200
     35 H052        48.8360   -39.6210   -27.4560 hc         1 A1A       0.054200
     36 H16         47.0460   -39.1860   -28.9450 hc         1 A1A       0.065700
     37 H9          47.6220   -36.9990   -30.9510 ha         1 A1A       0.119500
@<TRIPOS>BOND
     1     1     2 1   
     2     1     3 1   
     3     1    20 1   
     4     2    17 1   
     5     2    21 1   
     6     2    22 1   
     7     3     4 1   
     8     3    19 2   
     9     4     5 1   
    10     4    17 1   
    11     4    23 1   
    12     5     6 1   
    13     5    24 1   
    14     5    25 1   
    15     6     9 1   
    16     6    26 1   
    17     6    27 1   
    18     7    13 ar  
    19     7    18 ar  
    20     7    37 1   
    21     8    14 ar  
    22     8    15 ar  
    23     8    28 1   
    24     9    10 1   
    25     9    12 1   
    26    10    11 2   
    27    10    18 1   
    28    12    16 1   
    29    12    29 1   
    30    12    30 1   
    31    13    14 ar  
    32    13    31 1   
    33    14    32 1   
    34    15    18 ar  
    35    15    33 1   
    36    16    17 1   
    37    16    34 1   
    38    16    35 1   
    39    17    36 1   
@<TRIPOS>SUBSTRUCTURE
     1 A1A         1 TEMP              0 ****  ****    0 ROOT
