@<TRIPOS>MOLECULE
A1A
   86    92     1     0     0
SMALL
No Charge or Current Charge


@<TRIPOS>ATOM
      1 C15        159.6390   163.8600   162.8790 ca         1 A1A      -0.072300
      2 C12        167.2160   163.6430   166.7140 c2         1 A1A       0.066000
      3 C10        158.4920   163.0310   162.2380 c6         1 A1A       0.250800
      4 C18        159.7860   165.2320   162.5900 ca         1 A1A      -0.083300
      5 C13        165.0550   164.5120   167.5350 ca         1 A1A       0.028200
      6 C20        159.0490   162.0310   161.1720 c3         1 A1A      -0.027100
      7 C16        164.9010   161.3280   166.3890 c3         1 A1A      -0.042100
      8 C17        157.3530   165.2580   162.0060 c6         1 A1A       0.191800
      9 C11        164.3620   163.7820   166.5580 ca         1 A1A      -0.145300
     10 C19        158.7190   165.9290   161.7600 c6         1 A1A      -0.032100
     11 C14        166.5240   164.3390   167.6360 ce         1 A1A      -0.316200
     12 C09        165.1160   162.7250   165.7340 c6         1 A1A       0.300800
     13 C21        162.9820   163.9930   166.3720 ca         1 A1A       0.141100
     14 C22        160.5210   163.2630   163.8050 ca         1 A1A      -0.116000
     15 C24        164.3700   165.4220   168.3520 ca         1 A1A      -0.144000
     16 C25        161.5780   163.9920   164.3780 ca         1 A1A       0.122100
     17 C26        165.0580   160.1600   165.4260 ca         1 A1A      -0.084300
     18 C27        160.8680   165.9590   163.1170 ca         1 A1A      -0.101000
     19 C28        162.2640   164.8700   167.2350 ca         1 A1A       0.038100
     20 C30        160.1060   161.0460   161.6570 ca         1 A1A      -0.086300
     21 C31        162.9830   165.6090   168.2240 ca         1 A1A       0.121100
     22 C32        161.7850   165.3420   163.9820 ca         1 A1A       0.064100
     23 C33        163.9720   159.7820   164.6190 ca         1 A1A      -0.142000
     24 C34        166.2650   159.4430   165.3450 ca         1 A1A      -0.092000
     25 C35        161.4720   161.2980   161.4170 ca         1 A1A      -0.091500
     26 C36        159.7250   159.8660   162.3250 ca         1 A1A      -0.091500
     27 C37        164.0870   158.6960   163.7280 ca         1 A1A       0.094100
     28 C38        166.3900   158.3570   164.4610 ca         1 A1A      -0.181000
     29 C39        162.0610   159.2120   162.5230 ca         1 A1A       0.104100
     30 C40        162.4470   160.3860   161.8510 ca         1 A1A      -0.128500
     31 C41        160.7010   158.9490   162.7530 ca         1 A1A      -0.128500
     32 C42        165.2980   157.9720   163.6480 ca         1 A1A       0.119100
     33 C43        160.0410   163.8590   167.3620 c3         1 A1A       0.147900
     34 C44        164.1430   165.8880   163.8380 c3         1 A1A       0.147900
     35 C45        161.0490   166.9440   169.0880 c3         1 A1A       0.152900
     36 C46        166.5710   156.1150   162.6230 c3         1 A1A       0.145900
     37 N07        166.5760   163.0270   165.6440 nh         1 A1A      -0.688400
     38 N08        157.3940   163.8340   161.5950 n3         1 A1A      -0.760600
     39 O01        162.3660   163.3450   165.3160 os         1 A1A      -0.263200
     40 O02        160.8920   164.9920   167.1090 os         1 A1A      -0.342100
     41 O03        162.4260   166.5260   169.1060 os         1 A1A      -0.360100
     42 O04        162.8500   166.0910   164.4290 os         1 A1A      -0.346100
     43 O05        163.0070   158.3130   162.9570 os         1 A1A      -0.234200
     44 O06        165.3780   156.9040   162.7700 os         1 A1A      -0.320100
     45 H1         168.3050   163.5420   166.7520 h4         1 A1A       0.183000
     46 H2         158.0600   162.4290   163.0520 h1         1 A1A       0.043700
     47 H3         159.4540   162.6100   160.3340 hc         1 A1A       0.057700
     48 H4         158.2200   161.4570   160.7430 hc         1 A1A       0.057700
     49 H5         163.8900   161.2820   166.8120 hc         1 A1A       0.063700
     50 H6         165.5700   161.2120   167.2500 hc         1 A1A       0.063700
     51 H7         157.0890   165.3460   163.0710 h1         1 A1A       0.034200
     52 H8         156.5850   165.7990   161.4320 h1         1 A1A       0.034200
     53 H9         158.9780   165.8800   160.6940 hc         1 A1A       0.058200
     54 H10        158.6570   166.9920   162.0270 hc         1 A1A       0.058200
     55 H11        167.0270   164.8350   168.4660 ha         1 A1A       0.193000
     56 H12        160.3840   162.2250   164.0960 ha         1 A1A       0.130000
     57 H13        168.0640   161.8100   164.7370 h1         1 A1A       0.037700
     58 H14        166.6280   162.0880   163.7240 h1         1 A1A       0.037700
     59 H15        167.8160   163.3930   163.9580 h1         1 A1A       0.037700
     60 H16        164.9170   165.9920   169.0970 ha         1 A1A       0.127000
     61 H17        160.9950   167.0080   162.8650 ha         1 A1A       0.124000
     62 H18        156.1090   162.1630   161.2290 h1         1 A1A       0.029367
     63 H19        155.7090   163.1070   162.6830 h1         1 A1A       0.029367
     64 H20        155.3300   163.7480   161.0670 h1         1 A1A       0.029367
     65 H21        163.0350   160.3270   164.6960 ha         1 A1A       0.134000
     66 H22        167.1090   159.7280   165.9700 ha         1 A1A       0.116000
     67 H23        161.7780   162.2050   160.9000 ha         1 A1A       0.114500
     68 H24        158.6730   159.6580   162.5100 ha         1 A1A       0.114500
     69 H25        167.3360   157.8250   164.4250 ha         1 A1A       0.118000
     70 H26        163.4990   160.5870   161.6660 ha         1 A1A       0.126500
     71 H27        160.4050   158.0390   163.2690 ha         1 A1A       0.126500
     72 H28        158.9890   164.1360   167.2170 h1         1 A1A       0.036700
     73 H29        160.2680   163.0250   166.6890 h1         1 A1A       0.036700
     74 H30        160.1650   163.5100   168.3940 h1         1 A1A       0.036700
     75 H31        164.8960   166.5030   164.3460 h1         1 A1A       0.035033
     76 H32        164.4480   164.8380   163.9110 h1         1 A1A       0.035033
     77 H33        164.1280   166.1670   162.7770 h1         1 A1A       0.035033
     78 H34        160.8810   167.7200   169.8450 h1         1 A1A       0.037700
     79 H35        160.7790   167.3630   168.1110 h1         1 A1A       0.037700
     80 H36        160.3810   166.1050   169.3190 h1         1 A1A       0.037700
     81 H37        166.4140   155.3250   161.8780 h1         1 A1A       0.039700
     82 H38        167.4110   156.7370   162.2870 h1         1 A1A       0.039700
     83 H39        166.8430   155.6370   163.5730 h1         1 A1A       0.039700
     84 H40        164.6810   162.6880   164.7240 h1         1 A1A       0.069700
     85 C23        167.3080   162.5530   164.4500 c3         1 A1A       0.220100
     86 C29        156.0670   163.1770   161.6470 c3         1 A1A       0.170100
@<TRIPOS>BOND
     1     1     3 1   
     2     1     4 ar  
     3     1    14 ar  
     4     2    11 2   
     5     2    37 1   
     6     2    45 1   
     7     3     6 1   
     8     3    38 1   
     9     3    46 1   
    10     4    10 1   
    11     4    18 ar  
    12     5     9 ar  
    13     5    11 1   
    14     5    15 ar  
    15     6    20 1   
    16     6    47 1   
    17     6    48 1   
    18     7    12 1   
    19     7    17 1   
    20     7    49 1   
    21     7    50 1   
    22     8    10 1   
    23     8    38 1   
    24     8    51 1   
    25     8    52 1   
    26     9    12 1   
    27     9    13 ar  
    28    10    53 1   
    29    10    54 1   
    30    11    55 1   
    31    12    37 1   
    32    12    84 1   
    33    13    19 ar  
    34    13    39 1   
    35    14    16 ar  
    36    14    56 1   
    37    15    21 ar  
    38    15    60 1   
    39    16    22 ar  
    40    16    39 1   
    41    17    23 ar  
    42    17    24 ar  
    43    18    22 ar  
    44    18    61 1   
    45    19    21 ar  
    46    19    40 1   
    47    20    25 ar  
    48    20    26 ar  
    49    21    41 1   
    50    22    42 1   
    51    23    27 ar  
    52    23    65 1   
    53    24    28 ar  
    54    24    66 1   
    55    25    30 ar  
    56    25    67 1   
    57    26    31 ar  
    58    26    68 1   
    59    27    32 ar  
    60    27    43 1   
    61    28    32 ar  
    62    28    69 1   
    63    29    30 ar  
    64    29    31 ar  
    65    29    43 1   
    66    30    70 1   
    67    31    71 1   
    68    32    44 1   
    69    33    40 1   
    70    33    72 1   
    71    33    73 1   
    72    33    74 1   
    73    34    42 1   
    74    34    75 1   
    75    34    76 1   
    76    34    77 1   
    77    35    41 1   
    78    35    78 1   
    79    35    79 1   
    80    35    80 1   
    81    36    44 1   
    82    36    81 1   
    83    36    82 1   
    84    36    83 1   
    85    37    85 1   
    86    38    86 1   
    87    57    85 1   
    88    58    85 1   
    89    59    85 1   
    90    62    86 1   
    91    63    86 1   
    92    64    86 1   
@<TRIPOS>SUBSTRUCTURE
     1 A1A         1 TEMP              0 ****  ****    0 ROOT
