@<TRIPOS>MOLECULE
A1A
   69    72     1     0     0
SMALL
No Charge or Current Charge


@<TRIPOS>ATOM
      1 C2          74.5400    47.2060    22.7710 c5         1 A1A       0.035700
      2 C3          73.4340    46.5730    21.8740 c5         1 A1A      -0.130400
      3 C12         76.5760    50.2490    21.2590 c3         1 A1A       0.056700
      4 C14         77.6540    49.6570    20.2680 c3         1 A1A      -0.046000
      5 C15         77.0590    48.5130    19.4030 c3         1 A1A      -0.089767
      6 C16         78.1560    50.7620    19.2940 c3         1 A1A      -0.089767
      7 C17         78.8770    49.0980    21.0480 c3         1 A1A      -0.089767
      8 C19         77.5210    53.7440    22.6260 c3         1 A1A      -0.174100
      9 C22         75.7470    42.8660    24.0140 ca         1 A1A      -0.080300
     10 C23         74.7300    42.7340    23.0520 ca         1 A1A      -0.103000
     11 C24         76.4970    41.7140    24.3730 ca         1 A1A      -0.029000
     12 C25         76.2240    40.4500    23.7640 ca         1 A1A      -0.011000
     13 C26         75.1650    40.3290    22.8050 ca         1 A1A      -0.098500
     14 C27         74.4460    41.4970    22.4680 ca         1 A1A      -0.097000
     15 C28         74.6890    39.0510    22.2130 cc         1 A1A       0.301500
     16 C29         73.9280    38.9610    21.0270 cc         1 A1A      -0.216000
     17 C30         73.5640    37.6640    20.8470 cd         1 A1A      -0.176000
     18 C10         76.0200    49.2080    22.2940 c          1 A1A       0.611100
     19 C33         77.5330    41.8150    25.3360 ca         1 A1A      -0.109000
     20 C34         78.3170    40.7060    25.6750 ca         1 A1A      -0.103000
     21 C35         78.0920    39.4810    25.0460 ca         1 A1A      -0.114000
     22 C36         77.0670    39.3560    24.0980 ca         1 A1A      -0.085000
     23 C4          72.7160    47.8200    21.3040 c5         1 A1A       0.152300
     24 C5          73.9230    48.7350    20.9320 c5         1 A1A       0.113000
     25 C6          75.6410    46.1330    23.0500 c          1 A1A       0.603100
     26 N1          74.9680    48.3440    21.9130 n          1 A1A      -0.384800
     27 N13         77.1010    51.4210    22.0040 ns         1 A1A      -0.493900
     28 N31         74.0930    37.0060    21.9580 na         1 A1A      -0.001200
     29 N32         74.7680    37.8740    22.8150 nd         1 A1A      -0.514800
     30 N9          75.2570    45.3560    24.1230 ns         1 A1A      -0.502900
     31 O11         76.5070    49.1120    23.4180 o          1 A1A      -0.610100
     32 O20         76.1360    53.0790    20.7690 o          1 A1A      -0.607100
     33 O7          71.8620    48.4230    22.2820 oh         1 A1A      -0.638000
     34 O8          76.6940    45.9680    22.4460 o          1 A1A      -0.590100
     35 H1          74.1370    47.5730    23.7250 h1         1 A1A       0.076700
     36 H2          72.7630    45.9110    22.4320 hc         1 A1A       0.063200
     37 H3          73.8720    45.9780    21.0620 hc         1 A1A       0.063200
     38 H4          75.7260    50.5920    20.6590 h1         1 A1A       0.068700
     39 H5          76.7350    47.6650    20.0170 hc         1 A1A       0.040589
     40 H6          76.2030    48.8690    18.8170 hc         1 A1A       0.040589
     41 H7          77.8050    48.1310    18.6950 hc         1 A1A       0.040589
     42 H8          78.6920    51.5560    19.8260 hc         1 A1A       0.040589
     43 H9          78.8460    50.3470    18.5500 hc         1 A1A       0.040589
     44 H10         77.3170    51.2180    18.7550 hc         1 A1A       0.040589
     45 H11         79.3480    49.8730    21.6640 hc         1 A1A       0.040589
     46 H12         78.5870    48.2700    21.7060 hc         1 A1A       0.040589
     47 H13         79.6400    48.7170    20.3570 hc         1 A1A       0.040589
     48 H14         77.2950    54.7820    22.3590 hc         1 A1A       0.059367
     49 H15         77.2380    53.5220    23.6620 hc         1 A1A       0.059367
     50 H16         78.6000    53.5530    22.6340 hc         1 A1A       0.059367
     51 H17         77.1050    44.4710    24.5300 h1         1 A1A       0.067200
     52 H18         75.8430    44.1700    25.7330 h1         1 A1A       0.067200
     53 H19         74.1250    43.5850    22.7530 ha         1 A1A       0.108000
     54 H20         73.6150    41.4560    21.7700 ha         1 A1A       0.112000
     55 H21         73.6930    39.7850    20.3620 ha         1 A1A       0.148000
     56 H22         72.9930    37.1720    20.0670 h4         1 A1A       0.154000
     57 H23         77.7570    42.7530    25.8360 ha         1 A1A       0.110000
     58 H24         79.1110    40.8030    26.4120 ha         1 A1A       0.112000
     59 H25         78.7180    38.6240    25.2850 ha         1 A1A       0.112000
     60 H26         76.9760    38.3930    23.6130 ha         1 A1A       0.128000
     61 H27         72.1290    47.5690    20.4090 h1         1 A1A       0.048700
     62 H28         74.2530    48.5340    19.9060 h1         1 A1A       0.066700
     63 H29         73.6560    49.7980    21.0060 h1         1 A1A       0.066700
     64 H30         77.6740    51.2450    22.8220 hn         1 A1A       0.322500
     65 H31         74.0050    36.0110    22.1690 hn         1 A1A       0.372000
     66 H32         74.3690    45.5730    24.5590 hn         1 A1A       0.316500
     67 H33         71.1080    47.8090    22.4210 ho         1 A1A       0.441000
     68 C18         76.8480    52.7390    21.7010 c          1 A1A       0.597100
     69 C21         76.0400    44.2360    24.6540 c3         1 A1A       0.147300
@<TRIPOS>BOND
     1     1     2 1   
     2     1    25 1   
     3     1    26 1   
     4     1    35 1   
     5     2    23 1   
     6     2    36 1   
     7     2    37 1   
     8     3     4 1   
     9     3    18 1   
    10     3    27 1   
    11     3    38 1   
    12     4     5 1   
    13     4     6 1   
    14     4     7 1   
    15     5    39 1   
    16     5    40 1   
    17     5    41 1   
    18     6    42 1   
    19     6    43 1   
    20     6    44 1   
    21     7    45 1   
    22     7    46 1   
    23     7    47 1   
    24     8    48 1   
    25     8    49 1   
    26     8    50 1   
    27     8    68 1   
    28     9    10 ar  
    29     9    11 ar  
    30     9    69 1   
    31    10    14 ar  
    32    10    53 1   
    33    11    12 ar  
    34    11    19 ar  
    35    12    13 ar  
    36    12    22 ar  
    37    13    14 ar  
    38    13    15 1   
    39    14    54 1   
    40    15    16 1   
    41    15    29 2   
    42    16    17 2   
    43    16    55 1   
    44    17    28 1   
    45    17    56 1   
    46    18    26 1   
    47    18    31 2   
    48    19    20 ar  
    49    19    57 1   
    50    20    21 ar  
    51    20    58 1   
    52    21    22 ar  
    53    21    59 1   
    54    22    60 1   
    55    23    24 1   
    56    23    33 1   
    57    23    61 1   
    58    24    26 1   
    59    24    62 1   
    60    24    63 1   
    61    25    30 1   
    62    25    34 2   
    63    27    64 1   
    64    27    68 1   
    65    28    29 1   
    66    28    65 1   
    67    30    66 1   
    68    30    69 1   
    69    32    68 2   
    70    33    67 1   
    71    51    69 1   
    72    52    69 1   
@<TRIPOS>SUBSTRUCTURE
     1 A1A         1 TEMP              0 ****  ****    0 ROOT
