@<TRIPOS>MOLECULE
A1A
  100   105     1     0     0
SMALL
abcg2


@<TRIPOS>ATOM
      1 C1          12.3780    -0.0740   -24.4440 c3         1 A1A       0.095300
      2 C10         17.4490     3.8940   -26.0150 c5         1 A1A      -0.148700
      3 C12         17.5720     4.5300   -24.6310 c5         1 A1A       0.119000
      4 C14         17.1300     6.2570   -26.2620 c5         1 A1A       0.129000
      5 C15         17.8040     5.0720   -26.9300 cy         1 A1A      -0.108000
      6 C16         17.6420     4.8970   -28.4540 cy         1 A1A       0.110000
      7 C18         19.3300     5.2170   -27.1640 cy         1 A1A       0.110000
      8 C21         19.3090     4.2420   -30.8200 cx         1 A1A      -0.226700
      9 C23         20.1060     3.5350   -31.8730 cx         1 A1A      -0.085400
     10 C24         19.0230     2.7920   -31.1630 cx         1 A1A      -0.093000
     11 C25         17.7420     2.5250   -31.9160 c3         1 A1A      -0.065600
     12 C26         19.3930     1.7150   -30.1720 c3         1 A1A      -0.065600
     13 C29         16.8360     8.1840   -24.0110 cc         1 A1A      -0.270600
     14 C3          14.2530     0.9390   -25.6310 c          1 A1A       0.588100
     15 C30         17.1440     9.2150   -23.0990 cc         1 A1A       0.293900
     16 C34         13.9220    11.4100   -24.5090 ca         1 A1A      -0.120300
     17 C35         13.8620    12.4060   -23.5400 ca         1 A1A      -0.081500
     18 C36         12.6890    12.6300   -22.8320 ca         1 A1A      -0.113000
     19 C37         11.5640    11.8570   -23.0870 ca         1 A1A      -0.095000
     20 C38         11.6170    10.8610   -24.0540 ca         1 A1A      -0.113000
     21 C39         12.7900    10.6400   -24.7610 ca         1 A1A      -0.081500
     22 C40         16.0740     8.8190   -24.9770 cd         1 A1A      -0.130000
     23 C41         14.8650     0.3120   -27.9880 c3         1 A1A       0.164300
     24 C43         15.2880     0.7830   -29.3700 c3         1 A1A      -0.118100
     25 C45         15.5850    -1.9580   -27.7660 c3         1 A1A       0.162600
     26 C46         14.5350    -2.6100   -26.8780 c3         1 A1A      -0.110400
     27 C47         14.2790    -4.0790   -27.2080 c6         1 A1A      -0.057700
     28 C48         15.4990    -4.9630   -26.9360 c6         1 A1A      -0.071400
     29 C49         15.2150    -6.4340   -27.2230 c6         1 A1A      -0.072900
     30 C5          14.7320     1.4680   -26.9910 c3         1 A1A       0.030700
     31 C50         14.0080    -6.9350   -26.4380 c6         1 A1A      -0.074400
     32 C51         12.7840    -6.0690   -26.7130 c6         1 A1A      -0.072900
     33 C52         13.0710    -4.5990   -26.4270 c6         1 A1A      -0.071400
     34 C8          16.0460     3.3780   -26.2730 c          1 A1A       0.605100
     35 N13         17.2430     5.9340   -24.8490 n          1 A1A      -0.408800
     36 N17         19.0880     5.0030   -28.5770 nj         1 A1A      -0.421800
     37 N2          12.9730     0.5450   -25.6040 ns         1 A1A      -0.510900
     38 N31         16.6310    10.3640   -23.4780 nd         1 A1A      -0.528800
     39 N32         15.9860    10.1040   -24.6140 na         1 A1A       0.132800
     40 N7          15.9820     2.1600   -26.8400 ns         1 A1A      -0.475900
     41 O4          14.9910     0.8730   -24.6620 o          1 A1A      -0.581100
     42 O44         15.7950    -0.5960   -27.4420 os         1 A1A      -0.461000
     43 O9          15.0490     4.0320   -26.0050 o          1 A1A      -0.594100
     44 H11         11.3510    -0.3370   -24.6830 h1         1 A1A       0.041367
     45 H12         12.9080    -0.9840   -24.1610 h1         1 A1A       0.041367
     46 H13         12.3690     0.5990   -23.5860 h1         1 A1A       0.041367
     47 H101        18.1720     3.0850   -26.1360 hc         1 A1A       0.075700
     48 H122        16.9130     4.0740   -23.8920 h1         1 A1A       0.070200
     49 H121        18.5970     4.4240   -24.2640 h1         1 A1A       0.070200
     50 H142        16.0870     6.3360   -26.5810 h1         1 A1A       0.057200
     51 H141        17.6320     7.1950   -26.5040 h1         1 A1A       0.057200
     52 H162        17.2300     3.9370   -28.7740 h1         1 A1A       0.062450
     53 H161        17.0920     5.7000   -28.9500 h1         1 A1A       0.062450
     54 H181        19.7440     6.2000   -26.9270 h1         1 A1A       0.062450
     55 H182        19.9540     4.4500   -26.6970 h1         1 A1A       0.062450
     56 H211        18.5570     4.9510   -31.1540 hc         1 A1A       0.091700
     57 H231        19.9450     3.8260   -32.9040 hc         1 A1A       0.084700
     58 H232        21.1350     3.2950   -31.6330 hc         1 A1A       0.084700
     59 H252        17.8130     1.5910   -32.4770 hc         1 A1A       0.039867
     60 H251        16.8940     2.4400   -31.2350 hc         1 A1A       0.039867
     61 H253        17.5210     3.3230   -32.6250 hc         1 A1A       0.039867
     62 H262        19.4530     0.7470   -30.6730 hc         1 A1A       0.039867
     63 H263        20.3560     1.8980   -29.6960 hc         1 A1A       0.039867
     64 H261        18.6410     1.6300   -29.3840 hc         1 A1A       0.039867
     65 H301        17.7330     9.1460   -22.1970 h4         1 A1A       0.054100
     66 H332        15.8180    12.0420   -25.3070 h1         1 A1A       0.067200
     67 H331        15.0020    10.8190   -26.2740 h1         1 A1A       0.067200
     68 H351        14.7360    13.0130   -23.3390 ha         1 A1A       0.115500
     69 H361        12.6530    13.4090   -22.0820 ha         1 A1A       0.115500
     70 H371        10.6490    12.0330   -22.5380 ha         1 A1A       0.114000
     71 H381        10.7410    10.2590   -24.2610 ha         1 A1A       0.115500
     72 H391        12.8250     9.8640   -25.5170 ha         1 A1A       0.115500
     73 H401        15.5750     8.4590   -25.8620 h4         1 A1A       0.154000
     74 H411        13.8740    -0.1500   -28.0750 h1         1 A1A       0.039700
     75 H432        15.3340    -0.0560   -30.0650 hc         1 A1A       0.045700
     76 H431        14.5690     1.5000   -29.7680 hc         1 A1A       0.045700
     77 H433        16.2680     1.2590   -29.3490 hc         1 A1A       0.045700
     78 H452        15.3060    -2.0730   -28.8220 h1         1 A1A       0.046200
     79 H451        16.5530    -2.4450   -27.6420 h1         1 A1A       0.046200
     80 H461        14.8410    -2.5180   -25.8290 hc         1 A1A       0.049200
     81 H462        13.5920    -2.0620   -26.9730 hc         1 A1A       0.049200
     82 H471        14.0410    -4.1540   -28.2790 hc         1 A1A       0.041700
     83 H481        16.3550    -4.6380   -27.5330 hc         1 A1A       0.038950
     84 H482        15.7930    -4.8450   -25.8860 hc         1 A1A       0.038950
     85 H492        15.0280    -6.5620   -28.2940 hc         1 A1A       0.038450
     86 H491        16.0970    -7.0360   -26.9890 hc         1 A1A       0.038450
     87 H51         13.9870     2.1620   -27.3890 h1         1 A1A       0.084700
     88 H501        13.8000    -7.9790   -26.6850 hc         1 A1A       0.040200
     89 H502        14.2370    -6.9070   -25.3670 hc         1 A1A       0.040200
     90 H511        12.4860    -6.1840   -27.7610 hc         1 A1A       0.038450
     91 H512        11.9350    -6.4080   -26.1130 hc         1 A1A       0.038450
     92 H521        13.2610    -4.4700   -25.3550 hc         1 A1A       0.038950
     93 H522        12.1920    -3.9910   -26.6600 hc         1 A1A       0.038950
     94 H21         12.4020     0.6600   -26.4240 hn         1 A1A       0.310500
     95 H71         16.8290     1.6140   -26.8970 hn         1 A1A       0.332500
     96 C19         19.9480     4.5870   -29.5180 c          1 A1A       0.645100
     97 C27         17.2250     6.7800   -23.8030 c          1 A1A       0.661700
     98 C33         15.2020    11.1450   -25.2540 c3         1 A1A       0.136900
     99 O20         21.1500     4.5060   -29.2930 o          1 A1A      -0.597100
    100 O28         17.5240     6.3980   -22.6750 o          1 A1A      -0.608100
@<TRIPOS>BOND
     1     1    37 1   
     2     1    44 1   
     3     1    45 1   
     4     1    46 1   
     5     2     3 1   
     6     2     5 1   
     7     2    34 1   
     8     2    47 1   
     9     3    35 1   
    10     3    48 1   
    11     3    49 1   
    12     4     5 1   
    13     4    35 1   
    14     4    50 1   
    15     4    51 1   
    16     5     6 1   
    17     5     7 1   
    18     6    36 1   
    19     6    52 1   
    20     6    53 1   
    21     7    36 1   
    22     7    54 1   
    23     7    55 1   
    24     8     9 1   
    25     8    10 1   
    26     8    56 1   
    27     8    96 1   
    28     9    10 1   
    29     9    57 1   
    30     9    58 1   
    31    10    11 1   
    32    10    12 1   
    33    11    59 1   
    34    11    60 1   
    35    11    61 1   
    36    12    62 1   
    37    12    63 1   
    38    12    64 1   
    39    13    15 1   
    40    13    22 2   
    41    13    97 1   
    42    14    30 1   
    43    14    37 1   
    44    14    41 2   
    45    15    38 2   
    46    15    65 1   
    47    16    17 ar  
    48    16    21 ar  
    49    16    98 1   
    50    17    18 ar  
    51    17    68 1   
    52    18    19 ar  
    53    18    69 1   
    54    19    20 ar  
    55    19    70 1   
    56    20    21 ar  
    57    20    71 1   
    58    21    72 1   
    59    22    39 1   
    60    22    73 1   
    61    23    24 1   
    62    23    30 1   
    63    23    42 1   
    64    23    74 1   
    65    24    75 1   
    66    24    76 1   
    67    24    77 1   
    68    25    26 1   
    69    25    42 1   
    70    25    78 1   
    71    25    79 1   
    72    26    27 1   
    73    26    80 1   
    74    26    81 1   
    75    27    28 1   
    76    27    33 1   
    77    27    82 1   
    78    28    29 1   
    79    28    83 1   
    80    28    84 1   
    81    29    31 1   
    82    29    85 1   
    83    29    86 1   
    84    30    40 1   
    85    30    87 1   
    86    31    32 1   
    87    31    88 1   
    88    31    89 1   
    89    32    33 1   
    90    32    90 1   
    91    32    91 1   
    92    33    92 1   
    93    33    93 1   
    94    34    40 1   
    95    34    43 2   
    96    35    97 1   
    97    36    96 1   
    98    37    94 1   
    99    38    39 1   
   100    39    98 1   
   101    40    95 1   
   102    66    98 1   
   103    67    98 1   
   104    96    99 2   
   105    97   100 2   
@<TRIPOS>SUBSTRUCTURE
     1 A1A         1 TEMP              0 ****  ****    0 ROOT
