@<TRIPOS>MOLECULE
A1A
   81    87     1     0     0
SMALL
No Charge or Current Charge


@<TRIPOS>ATOM
      1 C4          20.0150    -6.2700     7.5300 c6         1 A1A      -0.058700
      2 C5          18.5440    -5.9290     7.9780 c6         1 A1A      -0.037700
      3 C6          18.2720    -4.4010     7.8960 c6         1 A1A      -0.073400
      4 C7          19.3200    -3.5870     8.6770 c6         1 A1A      -0.049200
      5 C8          20.7250    -3.9370     8.2030 c2         1 A1A      -0.040400
      6 C10         22.8980    -3.2870     7.1640 c          1 A1A       0.566500
      7 C13         21.1090    -5.4280     8.3110 c6         1 A1A       0.008400
      8 C15         17.5510    -6.7160     7.0380 c5         1 A1A      -0.069700
      9 C17         15.4450    -7.5610     6.2120 c5         1 A1A       0.151300
     10 C22         16.2660    -6.8980     2.7170 ca         1 A1A      -0.103300
     11 C24         16.0900    -6.4990     0.3110 ca         1 A1A      -0.114500
     12 C28         19.8890    -4.9820    -1.1670 ca         1 A1A      -0.146000
     13 C29         20.9760    -5.5810    -1.8250 ca         1 A1A      -0.070000
     14 C34         17.1750    -5.8240     2.8080 ca         1 A1A      -0.073500
     15 C23         15.7280    -7.2290     1.4570 ca         1 A1A      -0.073500
     16 C33         17.5370    -5.0930     1.6630 ca         1 A1A      -0.114500
     17 C30         20.7470    -6.4880    -2.8740 ca         1 A1A      -0.178000
     18 C32         18.3510    -6.1970    -2.6050 ca         1 A1A      -0.176000
     19 C25         16.9950    -5.4250     0.4070 ca         1 A1A      -0.057300
     20 C27         18.5690    -5.2850    -1.5540 ca         1 A1A      -0.042300
     21 C31         19.4360    -6.7960    -3.2630 ca         1 A1A       0.289000
     22 C11         23.2960    -4.7120     7.2170 ce         1 A1A      -0.287200
     23 C9          21.5460    -2.9930     7.6890 ce         1 A1A      -0.304200
     24 C12         22.5020    -5.6850     7.7210 c2         1 A1A      -0.160200
     25 C16         16.0220    -6.5730     7.2780 c5         1 A1A      -0.077400
     26 C2          19.2100    -8.5740     6.5590 c6         1 A1A      -0.067400
     27 C18         15.8730    -7.6970     3.9550 c5         1 A1A       0.430600
     28 C3          20.2780    -7.8290     7.4300 c6         1 A1A       0.182300
     29 C19         16.6010    -8.6280     5.9150 c5         1 A1A       0.034000
     30 C1          17.7260    -8.2870     6.9800 c5         1 A1A      -0.014000
     31 C14         21.2260    -5.7510     9.8380 c3         1 A1A      -0.070100
     32 C           17.4290    -9.0020     8.3460 c3         1 A1A      -0.090100
     33 N           19.2160    -7.6790    -4.2840 nv         1 A1A      -1.073000
     34 O1          23.6280    -2.4180     6.7110 o          1 A1A      -0.525100
     35 O2          15.3350    -6.8320     4.9670 os         1 A1A      -0.462000
     36 O3          17.0370    -8.2590     4.5800 os         1 A1A      -0.456000
     37 O           20.3970    -8.4580     8.7090 oh         1 A1A      -0.658000
     38 O5          17.1070   -12.4650     5.8840 oh         1 A1A      -0.637000
     39 H1          20.0890    -5.9130     6.4920 hc         1 A1A       0.055700
     40 H2          18.3890    -6.2560     9.0140 hc         1 A1A       0.065700
     41 H12         18.2770    -4.0750     6.8460 hc         1 A1A       0.047700
     42 H13         17.2720    -4.1710     8.2890 hc         1 A1A       0.047700
     43 H15         19.1230    -2.5140     8.5430 hc         1 A1A       0.056200
     44 H14         19.2200    -3.7800     9.7530 hc         1 A1A       0.056200
     45 H3          17.7700    -6.2960     6.0490 hc         1 A1A       0.059700
     46 H4          14.4750    -7.9990     6.4880 h1         1 A1A       0.088700
     47 H25         16.6750   -11.2640     4.2050 h1         1 A1A       0.072200
     48 H24         18.0630   -10.7410     5.1530 h1         1 A1A       0.072200
     49 H28         15.6670    -6.7700    -0.6530 ha         1 A1A       0.119000
     50 H30         16.5340    -4.5590    -1.5160 hc         1 A1A       0.056700
     51 H29         17.6400    -3.6060    -0.5640 hc         1 A1A       0.056700
     52 H32         21.9940    -5.3430    -1.5220 ha         1 A1A       0.111000
     53 H38         17.6020    -5.5560     3.7710 ha         1 A1A       0.115500
     54 H27         15.0280    -8.0560     1.3640 ha         1 A1A       0.115500
     55 H37         18.2410    -4.2700     1.7530 ha         1 A1A       0.119000
     56 H33         21.5910    -6.9490    -3.3790 ha         1 A1A       0.111000
     57 H36         17.3360    -6.4410    -2.9070 ha         1 A1A       0.110000
     58 H17         24.2850    -4.9380     6.8240 ha         1 A1A       0.200000
     59 H16         21.2400    -1.9520     7.6210 ha         1 A1A       0.199000
     60 H18         22.8670    -6.7130     7.7470 ha         1 A1A       0.171000
     61 H22         15.7280    -6.8460     8.2970 hc         1 A1A       0.063200
     62 H23         15.6650    -5.5500     7.1140 hc         1 A1A       0.063200
     63 H9          19.4150    -9.6520     6.5780 hc         1 A1A       0.059700
     64 H10         19.3640    -8.2630     5.5180 hc         1 A1A       0.059700
     65 H5          15.1530    -8.4880     3.7080 h2         1 A1A       0.037700
     66 H           21.2320    -7.9630     6.9010 h1         1 A1A       0.029700
     67 H21         20.2510    -5.8130    10.3330 hc         1 A1A       0.042700
     68 H19         21.7560    -6.6900    10.0290 hc         1 A1A       0.042700
     69 H20         21.8010    -4.9710    10.3530 hc         1 A1A       0.042700
     70 H8          16.3580    -9.0370     8.5770 hc         1 A1A       0.049033
     71 H7          17.7810   -10.0410     8.3380 hc         1 A1A       0.049033
     72 H6          17.9060    -8.5030     9.1960 hc         1 A1A       0.049033
     73 H35         18.2770    -7.7950    -4.6600 hn         1 A1A       0.447000
     74 H34         19.9960    -8.0030    -4.8530 hn         1 A1A       0.447000
     75 H11         21.0460    -7.9330     9.2180 ho         1 A1A       0.440000
     76 H26         16.1790   -12.7300     6.0830 ho         1 A1A       0.452000
     77 C20         16.1450   -10.1500     5.9610 c          1 A1A       0.532100
     78 C26         17.3910    -4.6390    -0.8360 c3         1 A1A       0.009200
     79 O4          15.1120   -10.5310     6.5070 o          1 A1A      -0.505100
     80 C21         17.0580   -11.1710     5.2290 c3         1 A1A       0.067600
     81 H31         20.0720    -4.2820    -0.3550 ha         1 A1A       0.117000
@<TRIPOS>BOND
     1     1     2 1   
     2     1     7 1   
     3     1    28 1   
     4     1    39 1   
     5     2     3 1   
     6     2     8 1   
     7     2    40 1   
     8     3     4 1   
     9     3    41 1   
    10     3    42 1   
    11     4     5 1   
    12     4    43 1   
    13     4    44 1   
    14     5     7 1   
    15     5    23 2   
    16     6    22 1   
    17     6    23 1   
    18     6    34 2   
    19     7    24 1   
    20     7    31 1   
    21     8    25 1   
    22     8    30 1   
    23     8    45 1   
    24     9    25 1   
    25     9    29 1   
    26     9    35 1   
    27     9    46 1   
    28    10    14 ar  
    29    10    15 ar  
    30    10    27 1   
    31    11    15 ar  
    32    11    19 ar  
    33    11    49 1   
    34    12    13 ar  
    35    12    20 ar  
    36    12    81 1   
    37    13    17 ar  
    38    13    52 1   
    39    14    16 ar  
    40    14    53 1   
    41    15    54 1   
    42    16    19 ar  
    43    16    55 1   
    44    17    21 ar  
    45    17    56 1   
    46    18    20 ar  
    47    18    21 ar  
    48    18    57 1   
    49    19    78 1   
    50    20    78 1   
    51    21    33 1   
    52    22    24 2   
    53    22    58 1   
    54    23    59 1   
    55    24    60 1   
    56    25    61 1   
    57    25    62 1   
    58    26    28 1   
    59    26    30 1   
    60    26    63 1   
    61    26    64 1   
    62    27    35 1   
    63    27    36 1   
    64    27    65 1   
    65    28    37 1   
    66    28    66 1   
    67    29    30 1   
    68    29    36 1   
    69    29    77 1   
    70    30    32 1   
    71    31    67 1   
    72    31    68 1   
    73    31    69 1   
    74    32    70 1   
    75    32    71 1   
    76    32    72 1   
    77    33    73 1   
    78    33    74 1   
    79    37    75 1   
    80    38    76 1   
    81    38    80 1   
    82    47    80 1   
    83    48    80 1   
    84    50    78 1   
    85    51    78 1   
    86    77    79 2   
    87    77    80 1   
@<TRIPOS>SUBSTRUCTURE
     1 A1A         1 TEMP              0 ****  ****    0 ROOT
