@<TRIPOS>MOLECULE
A1A
   43    45     1     0     0
SMALL
abcg2


@<TRIPOS>ATOM
      1 C8          -9.1650     1.1440   -15.1780 c3         1 A1A       0.166600
      2 C5          -7.5380    -0.6410   -12.9900 cc         1 A1A       0.520500
      3 C6          -7.5600    -1.3850   -14.2710 ca         1 A1A      -0.168900
      4 N1          -2.1830     4.5670   -12.5910 nc         1 A1A      -0.360300
      5 C2          -2.8130     2.9230   -13.9070 cc         1 A1A       0.094900
      6 N2          -6.6050     0.2160   -12.7910 nd         1 A1A      -0.587300
      7 N3          -8.4920    -0.9250   -12.0460 n          1 A1A      -0.298300
      8 C4          -6.5140     0.8870   -11.6080 cd         1 A1A       0.028400
      9 C15         -8.4210    -0.3720   -10.7910 c          1 A1A       0.499200
     10 C14         -7.3610     0.6080   -10.5800 cc         1 A1A       0.056900
     11 O4          -7.3270     1.1650    -9.3800 oh         1 A1A      -0.468100
     12 C           -5.4360     1.9120   -11.5200 c          1 A1A       0.642300
     13 N           -4.7250     2.0330   -12.6650 ns         1 A1A      -0.368100
     14 C1          -3.6660     2.9030   -12.8520 cd         1 A1A      -0.054400
     15 C3          -3.2070     3.9810   -12.0450 cd         1 A1A       0.262900
     16 O1          -1.9350     3.9150   -13.7510 os         1 A1A      -0.064700
     17 O           -5.2310     2.5760   -10.5210 o          1 A1A      -0.569100
     18 C16         -9.6340    -1.7960   -12.3130 c3         1 A1A       0.075300
     19 C13         -7.3590    -2.7620   -14.2740 ca         1 A1A      -0.064000
     20 C12         -7.3160    -3.4620   -15.4660 ca         1 A1A      -0.122000
     21 C11         -7.4810    -2.7950   -16.6710 ca         1 A1A      -0.053000
     22 C10         -7.6910    -1.4250   -16.6680 ca         1 A1A      -0.052900
     23 BR          -7.9230    -0.5110   -18.2960 br         1 A1A      -0.067100
     24 C7          -7.7200    -0.6990   -15.4780 ca         1 A1A       0.174100
     25 O2          -7.8700     0.6390   -15.5100 os         1 A1A      -0.338100
     26 C9          -9.1160     2.6470   -15.2190 c3         1 A1A       0.163600
     27 O3          -8.2370     3.1120   -14.2230 oh         1 A1A      -0.648000
     28 H1          -9.9080     0.7880   -15.8980 h1         1 A1A       0.039700
     29 H2          -9.4740     0.8020   -14.1840 h1         1 A1A       0.039700
     30 H3          -2.7300     2.3170   -14.7970 h4         1 A1A       0.060100
     31 H4          -8.0520     0.7890    -8.8540 ho         1 A1A       0.494000
     32 H5          -4.9750     1.4120   -13.4230 hn         1 A1A       0.360500
     33 H6          -3.5870     4.3380   -11.1030 h4         1 A1A       0.070100
     34 H7         -10.5210    -1.3720   -11.8510 h1         1 A1A       0.060367
     35 H8          -9.8010    -1.8660   -13.3810 h1         1 A1A       0.060367
     36 H9          -9.4650    -2.7930   -11.9090 h1         1 A1A       0.060367
     37 H10         -7.2240    -3.2850   -13.3350 ha         1 A1A       0.127000
     38 H11         -7.1490    -4.5310   -15.4640 ha         1 A1A       0.128000
     39 H12         -7.4500    -3.3440   -17.6020 ha         1 A1A       0.136000
     40 H13         -8.8120     2.9720   -16.2220 h1         1 A1A       0.032200
     41 H14        -10.1430     3.0040   -15.0670 h1         1 A1A       0.032200
     42 H15         -8.1990     4.0710   -14.2790 ho         1 A1A       0.449000
     43 O5          -9.2090    -0.6470    -9.8980 o          1 A1A      -0.555000
@<TRIPOS>BOND
     1     1    25 1   
     2     1    26 1   
     3     1    28 1   
     4     1    29 1   
     5     2     3 1   
     6     2     6 2   
     7     2     7 1   
     8     3    19 ar  
     9     3    24 ar  
    10     4    15 2   
    11     4    16 1   
    12     5    14 2   
    13     5    16 1   
    14     5    30 1   
    15     6     8 1   
    16     7     9 1   
    17     7    18 1   
    18     8    10 2   
    19     8    12 1   
    20     9    10 1   
    21     9    43 2   
    22    10    11 1   
    23    11    31 1   
    24    12    13 1   
    25    12    17 2   
    26    13    14 1   
    27    13    32 1   
    28    14    15 1   
    29    15    33 1   
    30    18    34 1   
    31    18    35 1   
    32    18    36 1   
    33    19    20 ar  
    34    19    37 1   
    35    20    21 ar  
    36    20    38 1   
    37    21    22 ar  
    38    21    39 1   
    39    22    23 1   
    40    22    24 ar  
    41    24    25 1   
    42    26    27 1   
    43    26    40 1   
    44    26    41 1   
    45    27    42 1   
@<TRIPOS>SUBSTRUCTURE
     1 A1A         1 TEMP              0 ****  ****    0 ROOT
