@<TRIPOS>MOLECULE
A1A
   44    45     1     0     0
SMALL
No Charge or Current Charge


@<TRIPOS>ATOM
      1 C01         12.3340     7.0750     8.9740 c3         1 A1A      -0.028900
      2 C02         11.4670     6.8970     7.7480 cc         1 A1A      -0.300400
      3 C03         10.2000     6.3500     7.7710 cd         1 A1A       0.041600
      4 C05          8.0990     5.6310     6.5910 c5         1 A1A       0.340700
      5 C06          8.2580     4.0840     6.4330 c5         1 A1A      -0.144400
      6 C07          8.1280     3.5880     7.8910 c5         1 A1A       0.197300
      7 C09          7.0260     4.5750     8.3860 c5         1 A1A       0.105300
      8 C10          6.8160     4.6440     9.9230 c3         1 A1A       0.239600
      9 C15          8.9190     3.0180    12.4270 c3         1 A1A      -0.837400
     10 C25          9.9840     6.6600     5.3590 c          1 A1A       0.604000
     11 C28         12.0480     7.3550     6.4670 c          1 A1A       0.585200
     12 N04          9.4660     6.2140     6.5870 n          1 A1A      -0.307000
     13 N27         11.2330     7.1900     5.3940 ns         1 A1A      -0.474500
     14 O08          7.7500     2.2100     7.9630 oh         1 A1A      -0.830000
     15 O11          8.0980     4.6760    10.5710 os         1 A1A      -0.629400
     16 O13          6.8870     4.8000    12.8720 o          1 A1A      -0.870500
     17 O14          9.2000     5.5650    12.6650 o          1 A1A      -0.870500
     18 O17          8.0030     1.6840    10.3690 o          1 A1A      -0.901000
     19 O18          6.3900     2.0550    12.2610 o          1 A1A      -0.901000
     20 O19          8.5190     0.6330    12.6370 os         1 A1A      -0.735800
     21 O21          6.9980    -1.0910    11.5110 o          1 A1A      -0.957833
     22 O22          6.8440    -0.7250    13.9260 o          1 A1A      -0.957833
     23 O23          8.7750    -1.7920    12.9670 o          1 A1A      -0.957833
     24 O24          7.4580     5.8540     7.8680 os         1 A1A      -0.466000
     25 O26          9.3770     6.5830     4.3030 o          1 A1A      -0.634000
     26 O29         13.1570     7.8480     6.3420 o          1 A1A      -0.608000
     27 P12          8.1850     4.5880    12.1730 p5         1 A1A       1.446400
     28 P16          7.7980     1.7950    11.8460 p5         1 A1A       1.569400
     29 P20          7.7500    -0.7350    12.7450 p5         1 A1A       1.363900
     30 H011        13.2770     6.5230     8.8750 hc         1 A1A       0.057367
     31 H013        12.5770     8.1330     9.1350 hc         1 A1A       0.057367
     32 H012        11.8320     6.7100     9.8780 hc         1 A1A       0.057367
     33 H031         9.6990     6.0070     8.6770 h4         1 A1A       0.308000
     34 H051         7.5190     6.0810     5.7760 h2         1 A1A       0.048700
     35 H062         7.4540     3.6860     5.8030 hc         1 A1A       0.044200
     36 H061         9.2050     3.7850     5.9690 hc         1 A1A       0.044200
     37 H071         9.0710     3.7520     8.4340 h1         1 A1A       0.077700
     38 H091         6.0600     4.3390     7.9190 h1         1 A1A       0.019700
     39 H102         6.2350     3.7680    10.2340 h1         1 A1A       0.044200
     40 H101         6.2290     5.5400    10.1650 h1         1 A1A       0.044200
     41 H152         9.8500     2.9520    11.8680 hc         1 A1A       0.089700
     42 H151         9.0960     2.8890    13.4930 hc         1 A1A       0.089700
     43 H271        11.6030     7.5000     4.5100 hn         1 A1A       0.299500
     44 H081         7.8580     1.9600     8.9630 ho         1 A1A       0.637000
@<TRIPOS>BOND
     1     1     2 1   
     2     1    30 1   
     3     1    31 1   
     4     1    32 1   
     5     2     3 2   
     6     2    11 1   
     7     3    12 1   
     8     3    33 1   
     9     4     5 1   
    10     4    12 1   
    11     4    24 1   
    12     4    34 1   
    13     5     6 1   
    14     5    35 1   
    15     5    36 1   
    16     6     7 1   
    17     6    14 1   
    18     6    37 1   
    19     7     8 1   
    20     7    24 1   
    21     7    38 1   
    22     8    15 1   
    23     8    39 1   
    24     8    40 1   
    25     9    27 1   
    26     9    28 1   
    27     9    41 1   
    28     9    42 1   
    29    10    12 1   
    30    10    13 1   
    31    10    25 2   
    32    11    13 1   
    33    11    26 2   
    34    13    43 1   
    35    14    44 1   
    36    15    27 1   
    37    16    27 1   
    38    17    27 1   
    39    18    28 1   
    40    19    28 1   
    41    20    28 1   
    42    20    29 1   
    43    21    29 1   
    44    22    29 1   
    45    23    29 1   
@<TRIPOS>SUBSTRUCTURE
     1 A1A         1 TEMP              0 ****  ****    0 ROOT
