@<TRIPOS>MOLECULE
A1A
   81    87     1     0     0
SMALL
abcg2


@<TRIPOS>ATOM
      1 C4          19.8950    -6.1090     7.9160 c6         1 A1A      -0.058700
      2 C5          18.3870    -5.8320     8.0840 c6         1 A1A      -0.037700
      3 C6          18.0790    -4.3480     7.8980 c6         1 A1A      -0.073400
      4 C7          18.9510    -3.4490     8.7700 c6         1 A1A      -0.049200
      5 C8          20.3900    -3.7880     8.5610 c2         1 A1A      -0.040400
      6 C10         22.6610    -3.1950     7.8220 c          1 A1A       0.566500
      7 C13         20.7740    -5.2150     8.8620 c6         1 A1A       0.008400
      8 C15         17.6400    -6.6380     7.0310 c5         1 A1A      -0.069700
      9 C17         15.7540    -7.6670     5.9740 c5         1 A1A       0.151300
     10 C22         17.0520    -7.1990     2.6820 ca         1 A1A      -0.103300
     11 C24         17.2340    -6.8750     0.2960 ca         1 A1A      -0.114500
     12 C28         19.9270    -6.4170    -2.0050 ca         1 A1A      -0.146000
     13 C29         20.1960    -7.1310    -3.1640 ca         1 A1A      -0.070000
     14 C34         17.8120    -6.0500     2.8770 ca         1 A1A      -0.073500
     15 C23         16.7710    -7.6040     1.3850 ca         1 A1A      -0.073500
     16 C33         18.2780    -5.3300     1.7910 ca         1 A1A      -0.114500
     17 C30         19.3290    -7.0940    -4.2460 ca         1 A1A      -0.178000
     18 C32         17.8980    -5.6110    -3.0090 ca         1 A1A      -0.176000
     19 C25         17.9900    -5.7240     0.4840 ca         1 A1A      -0.057300
     20 C27         18.7670    -5.6480    -1.9280 ca         1 A1A      -0.042300
     21 C31         18.1590    -6.3320    -4.1830 ca         1 A1A       0.289000
     22 C11         23.0830    -4.5650     8.1240 ce         1 A1A      -0.287200
     23 C9          21.2580    -2.8860     8.0850 ce         1 A1A      -0.304200
     24 C12         22.2230    -5.4710     8.5920 c2         1 A1A      -0.160200
     25 C16         16.1230    -6.5300     6.9330 c5         1 A1A      -0.077400
     26 C2          19.3820    -8.3950     6.9230 c6         1 A1A      -0.067400
     27 C18         16.5210    -7.9800     3.8450 c5         1 A1A       0.430600
     28 C3          20.2510    -7.6100     7.9150 c6         1 A1A       0.182300
     29 C19         16.9720    -8.6430     5.9520 c5         1 A1A       0.034000
     30 C1          17.8880    -8.1520     7.1110 c5         1 A1A      -0.014000
     31 C14         20.5540    -5.4580    10.3730 c3         1 A1A      -0.070100
     32 C           17.3710    -8.7540     8.4250 c3         1 A1A      -0.090100
     33 N           17.2550    -6.3260    -5.2250 nv         1 A1A      -1.073000
     34 O1          23.4420    -2.3620     7.3850 o          1 A1A      -0.525100
     35 O2          15.6900    -7.1860     4.6410 os         1 A1A      -0.462000
     36 O3          17.5650    -8.3800     4.6970 os         1 A1A      -0.456000
     37 O           20.1600    -8.2080     9.1940 oh         1 A1A      -0.658000
     38 O5          17.3290   -12.4200     5.6880 oh         1 A1A      -0.637000
     39 H1          20.1470    -5.7700     6.9000 hc         1 A1A       0.055700
     40 H2          18.0570    -6.1290     9.0860 hc         1 A1A       0.065700
     41 H12         18.2350    -4.0800     6.8470 hc         1 A1A       0.047700
     42 H13         17.0270    -4.1550     8.1170 hc         1 A1A       0.047700
     43 H15         18.7740    -2.4000     8.5300 hc         1 A1A       0.056200
     44 H14         18.6780    -3.5840     9.8210 hc         1 A1A       0.056200
     45 H3          18.0460    -6.3020     6.0680 hc         1 A1A       0.059700
     46 H4          14.8170    -8.1600     6.2430 h1         1 A1A       0.088700
     47 H25         17.4720   -10.9210     4.2490 h1         1 A1A       0.072200
     48 H24         18.5840   -10.8420     5.5960 h1         1 A1A       0.072200
     49 H28         16.9990    -7.2130    -0.7060 ha         1 A1A       0.119000
     50 H30         17.6830    -4.1280    -0.8900 hc         1 A1A       0.056700
     51 H29         19.3380    -4.3090    -0.3640 hc         1 A1A       0.056700
     52 H32         21.1000    -7.7240    -3.2330 ha         1 A1A       0.111000
     53 H38         18.0490    -5.7110     3.8780 ha         1 A1A       0.115500
     54 H27         16.1810    -8.4970     1.2150 ha         1 A1A       0.115500
     55 H37         18.8740    -4.4400     1.9590 ha         1 A1A       0.119000
     56 H33         19.5580    -7.6550    -5.1440 ha         1 A1A       0.111000
     57 H36         16.9950    -5.0110    -2.9480 ha         1 A1A       0.110000
     58 H17         24.1250    -4.8170     7.9680 ha         1 A1A       0.200000
     59 H16         20.9290    -1.8740     7.8740 ha         1 A1A       0.199000
     60 H18         22.5960    -6.4600     8.8330 ha         1 A1A       0.171000
     61 H22         15.6490    -6.6790     7.9040 hc         1 A1A       0.063200
     62 H23         15.7770    -5.5700     6.5490 hc         1 A1A       0.063200
     63 H9          19.6420    -9.4530     7.0170 hc         1 A1A       0.059700
     64 H10         19.6750    -8.0830     5.9180 hc         1 A1A       0.059700
     65 H5          15.9720    -8.8670     3.4830 h2         1 A1A       0.037700
     66 H           21.2770    -7.7030     7.5410 h1         1 A1A       0.029700
     67 H21         19.5010    -5.5270    10.6370 hc         1 A1A       0.042700
     68 H19         21.0400    -6.3700    10.7090 hc         1 A1A       0.042700
     69 H20         20.9880    -4.6340    10.9420 hc         1 A1A       0.042700
     70 H8          16.2840    -8.7390     8.4970 hc         1 A1A       0.049033
     71 H7          17.6890    -9.7920     8.5300 hc         1 A1A       0.049033
     72 H6          17.7570    -8.2190     9.2870 hc         1 A1A       0.049033
     73 H35         16.6470    -5.5240    -5.2700 hn         1 A1A       0.447000
     74 H34         17.6330    -6.5570    -6.1300 hn         1 A1A       0.447000
     75 H11         21.0390    -8.2670     9.5780 ho         1 A1A       0.440000
     76 H26         16.4360   -12.6640     5.4240 ho         1 A1A       0.452000
     77 C20         16.6090   -10.1230     6.0260 c          1 A1A       0.532100
     78 C26         18.4550    -4.8730    -0.6760 c3         1 A1A       0.009200
     79 O4          15.6230   -10.5180     6.5980 o          1 A1A      -0.505100
     80 C21         17.5530   -11.0900     5.3320 c3         1 A1A       0.067600
     81 H31         20.6130    -6.4520    -1.1670 ha         1 A1A       0.117000
@<TRIPOS>BOND
     1     1     2 1   
     2     1     7 1   
     3     1    28 1   
     4     1    39 1   
     5     2     3 1   
     6     2     8 1   
     7     2    40 1   
     8     3     4 1   
     9     3    41 1   
    10     3    42 1   
    11     4     5 1   
    12     4    43 1   
    13     4    44 1   
    14     5     7 1   
    15     5    23 2   
    16     6    22 1   
    17     6    23 1   
    18     6    34 2   
    19     7    24 1   
    20     7    31 1   
    21     8    25 1   
    22     8    30 1   
    23     8    45 1   
    24     9    25 1   
    25     9    29 1   
    26     9    35 1   
    27     9    46 1   
    28    10    14 ar  
    29    10    15 ar  
    30    10    27 1   
    31    11    15 ar  
    32    11    19 ar  
    33    11    49 1   
    34    12    13 ar  
    35    12    20 ar  
    36    12    81 1   
    37    13    17 ar  
    38    13    52 1   
    39    14    16 ar  
    40    14    53 1   
    41    15    54 1   
    42    16    19 ar  
    43    16    55 1   
    44    17    21 ar  
    45    17    56 1   
    46    18    20 ar  
    47    18    21 ar  
    48    18    57 1   
    49    19    78 1   
    50    20    78 1   
    51    21    33 1   
    52    22    24 2   
    53    22    58 1   
    54    23    59 1   
    55    24    60 1   
    56    25    61 1   
    57    25    62 1   
    58    26    28 1   
    59    26    30 1   
    60    26    63 1   
    61    26    64 1   
    62    27    35 1   
    63    27    36 1   
    64    27    65 1   
    65    28    37 1   
    66    28    66 1   
    67    29    30 1   
    68    29    36 1   
    69    29    77 1   
    70    30    32 1   
    71    31    67 1   
    72    31    68 1   
    73    31    69 1   
    74    32    70 1   
    75    32    71 1   
    76    32    72 1   
    77    33    73 1   
    78    33    74 1   
    79    37    75 1   
    80    38    76 1   
    81    38    80 1   
    82    47    80 1   
    83    48    80 1   
    84    50    78 1   
    85    51    78 1   
    86    77    79 2   
    87    77    80 1   
@<TRIPOS>SUBSTRUCTURE
     1 A1A         1 TEMP              0 ****  ****    0 ROOT
