@<TRIPOS>MOLECULE
A1A
   43    45     1     0     0
SMALL
No Charge or Current Charge


@<TRIPOS>ATOM
      1 C01        164.2840   170.7750   188.5050 c3         1 A1A      -0.064900
      2 C02        165.5370   171.4520   188.0100 cc         1 A1A       0.056600
      3 C03        165.9460   171.3680   186.6970 cd         1 A1A      -0.349200
      4 C04        167.1560   172.0040   186.1520 c          1 A1A       0.677300
      5 C07        167.5770   172.8600   188.3540 ca         1 A1A       0.206100
      6 C08        166.4180   172.2490   188.8730 ca         1 A1A      -0.196800
      7 C09        166.1270   172.4230   190.2450 ca         1 A1A      -0.022000
      8 C10        166.9730   173.1870   191.0670 ca         1 A1A      -0.215000
      9 C11        168.1270   173.7950   190.5300 ca         1 A1A       0.207100
     10 C12        168.4210   173.6210   189.1730 ca         1 A1A      -0.179000
     11 C14        168.7430   174.8520   192.6660 c6         1 A1A       0.425300
     12 C15        170.0230   175.4960   193.3190 c6         1 A1A       0.133500
     13 C16        169.7690   175.8230   194.8340 c6         1 A1A       0.115300
     14 C17        168.2400   175.9680   195.1640 c6         1 A1A       0.111300
     15 C18        167.4320   176.5410   193.9460 c6         1 A1A       0.208300
     16 C20        167.6380   178.0750   193.6510 c3         1 A1A       0.148600
     17 N24        171.3030   174.7070   193.1570 n8         1 A1A      -0.973200
     18 O05        167.4730   171.8960   184.9770 o          1 A1A      -0.491000
     19 O06        167.9050   172.7210   187.0340 os         1 A1A      -0.337200
     20 O13        169.0060   174.5490   191.2810 os         1 A1A      -0.311100
     21 O19        167.6020   175.7580   192.7210 os         1 A1A      -0.484000
     22 O22        167.7030   174.6730   195.5270 oh         1 A1A      -0.718000
     23 O23        170.5020   177.0040   195.2040 oh         1 A1A      -0.632000
     24 H1         163.5770   171.5090   188.9090 hc         1 A1A       0.053033
     25 H2         163.7750   170.2340   187.6980 hc         1 A1A       0.053033
     26 H3         164.5170   170.0500   189.2930 hc         1 A1A       0.053033
     27 H4         165.3820   170.8080   185.9620 ha         1 A1A       0.209000
     28 H5         165.2440   171.9690   190.6880 ha         1 A1A       0.114000
     29 H6         166.7110   173.2950   192.1150 ha         1 A1A       0.134000
     30 H7         169.3090   174.0810   188.7510 ha         1 A1A       0.155000
     31 H8         168.5100   173.9210   193.2040 h2         1 A1A       0.044700
     32 H9         170.1790   176.4450   192.7880 h1         1 A1A       0.123700
     33 H10        170.1490   174.9800   195.4310 h1         1 A1A       0.016700
     34 H11        168.1190   176.6580   196.0130 h1         1 A1A       0.049700
     35 H12        166.3720   176.4560   194.2260 h1         1 A1A       0.076700
     36 H13        167.7420   178.5960   194.6130 h1         1 A1A       0.028700
     37 H14        166.7060   178.4410   193.2000 h1         1 A1A       0.028700
     38 H16        172.0550   175.2190   193.6340 hn         1 A1A       0.399500
     39 H17        171.2320   173.8350   193.6940 hn         1 A1A       0.399500
     40 H18        168.7380   179.3920   192.6820 ho         1 A1A       0.509000
     41 H19        167.9750   174.4910   196.4580 ho         1 A1A       0.505000
     42 H20        170.5820   177.0030   196.1840 ho         1 A1A       0.440000
     43 O21        168.7400   178.4120   192.7850 oh         1 A1A      -0.708000
@<TRIPOS>BOND
     1     1     2 1   
     2     1    24 1   
     3     1    25 1   
     4     1    26 1   
     5     2     3 2   
     6     2     6 1   
     7     3     4 1   
     8     3    27 1   
     9     4    18 2   
    10     4    19 1   
    11     5     6 ar  
    12     5    10 ar  
    13     5    19 1   
    14     6     7 ar  
    15     7     8 ar  
    16     7    28 1   
    17     8     9 ar  
    18     8    29 1   
    19     9    10 ar  
    20     9    20 1   
    21    10    30 1   
    22    11    12 1   
    23    11    20 1   
    24    11    21 1   
    25    11    31 1   
    26    12    13 1   
    27    12    17 1   
    28    12    32 1   
    29    13    14 1   
    30    13    23 1   
    31    13    33 1   
    32    14    15 1   
    33    14    22 1   
    34    14    34 1   
    35    15    16 1   
    36    15    21 1   
    37    15    35 1   
    38    16    36 1   
    39    16    37 1   
    40    16    43 1   
    41    17    38 1   
    42    17    39 1   
    43    22    41 1   
    44    23    42 1   
    45    40    43 1   
@<TRIPOS>SUBSTRUCTURE
     1 A1A         1 TEMP              0 ****  ****    0 ROOT
