@<TRIPOS>MOLECULE
A1A
   64    67     1     0     0
SMALL
No Charge or Current Charge


@<TRIPOS>ATOM
      1 C10        134.9630   136.3440   168.9170 c5         1 A1A       0.107700
      2 C13        136.7330   137.6800   169.7050 c5         1 A1A      -0.075400
      3 C15        134.9890   136.8830   171.4750 c3         1 A1A      -0.026100
      4 C17        136.5710   137.7620   173.2660 ca         1 A1A      -0.108500
      5 C20        134.8760   139.9400   173.7900 ca         1 A1A      -0.109000
      6 C21        134.5250   138.9950   172.8100 ca         1 A1A      -0.108500
      7 C24        129.6810   131.9080   167.5960 c6         1 A1A       0.180300
      8 C26        130.7490   129.5940   163.9420 ca         1 A1A      -0.154500
      9 C01        127.5350   130.9590   165.5500 c3         1 A1A      -0.121100
     10 C02        129.0640   130.7040   165.4970 c3         1 A1A       0.235800
     11 C04        129.8140   133.0990   165.4320 c6         1 A1A       0.180300
     12 C05        130.8540   134.0910   165.9990 c6         1 A1A      -0.094400
     13 C06        130.6840   134.2370   167.5270 c6         1 A1A       0.140700
     14 C08        132.9670   135.1590   168.1710 c          1 A1A       0.648100
     15 C11        135.4350   137.1250   167.6620 c5         1 A1A      -0.103400
     16 C12        136.7580   137.7990   168.1470 c5         1 A1A      -0.079400
     17 C14        135.2420   137.3840   170.0310 c5         1 A1A      -0.069700
     18 C16        135.3700   137.9010   172.5430 ca         1 A1A      -0.076300
     19 C18        136.9220   138.7070   174.2460 ca         1 A1A      -0.109000
     20 C19        136.0750   139.7960   174.5090 ca         1 A1A      -0.112000
     21 C23        130.7190   132.8610   168.2290 c6         1 A1A      -0.094400
     22 C25        129.5770   130.3610   164.0880 ca         1 A1A      -0.042300
     23 C27        131.2270   129.2860   162.6580 ca         1 A1A       0.326400
     24 C29        129.4900   130.4390   161.6560 ca         1 A1A       0.326400
     25 C30        128.9440   130.7930   162.9020 ca         1 A1A      -0.154500
     26 N03        129.8850   131.7780   166.1240 n3         1 A1A      -0.739600
     27 N07        131.5990   135.2220   168.1260 ns         1 A1A      -0.522900
     28 N09        133.5030   136.2520   168.8050 ns         1 A1A      -0.509900
     29 N28        130.6120   129.6950   161.5250 nb         1 A1A      -0.665000
     30 O22        133.6260   134.2430   167.7080 o          1 A1A      -0.638100
     31 H1         135.4870   135.3890   169.0720 h1         1 A1A       0.086700
     32 H2         137.3820   136.8630   170.0430 hc         1 A1A       0.046200
     33 H3         137.0910   138.5930   170.1950 hc         1 A1A       0.046200
     34 H4         133.9300   136.6220   171.5900 hc         1 A1A       0.054200
     35 H5         135.5380   135.9470   171.6380 hc         1 A1A       0.054200
     36 H6         137.2360   136.9240   173.0670 ha         1 A1A       0.109000
     37 H7         134.2190   140.7830   173.9920 ha         1 A1A       0.111000
     38 H8         133.5960   139.1150   172.2570 ha         1 A1A       0.109000
     39 H9         128.6730   132.2910   167.8120 h1         1 A1A       0.031200
     40 H10        129.7660   130.9250   168.0820 h1         1 A1A       0.031200
     41 H12        127.1830   131.0120   166.5860 hc         1 A1A       0.040700
     42 H13        127.2580   131.8930   165.0490 hc         1 A1A       0.040700
     43 H14        126.9970   130.1370   165.0630 hc         1 A1A       0.040700
     44 H15        129.2190   129.7880   166.0840 h1         1 A1A       0.064700
     45 H16        129.9990   132.9850   164.3550 h1         1 A1A       0.031200
     46 H17        128.8110   133.5370   165.5440 h1         1 A1A       0.031200
     47 H18        131.8620   133.7310   165.7590 hc         1 A1A       0.063450
     48 H19        130.7390   135.0680   165.5110 hc         1 A1A       0.063450
     49 H20        129.6750   134.6430   167.6910 h1         1 A1A       0.034700
     50 H21        134.7110   137.8910   167.3560 hc         1 A1A       0.050200
     51 H22        135.5910   136.4680   166.7990 hc         1 A1A       0.050200
     52 H23        137.6430   137.3030   167.7310 hc         1 A1A       0.046700
     53 H24        136.8030   138.8460   167.8240 hc         1 A1A       0.046700
     54 H25        134.6380   138.2910   169.8940 hc         1 A1A       0.045700
     55 H26        137.8520   138.5950   174.8000 ha         1 A1A       0.111000
     56 H27        136.3470   140.5270   175.2670 ha         1 A1A       0.111000
     57 H28        130.5110   132.9770   169.3010 hc         1 A1A       0.063450
     58 H29        131.7170   132.4140   168.1450 hc         1 A1A       0.063450
     59 H30        132.1320   128.6930   162.5310 h4         1 A1A       0.017100
     60 H31        129.0130   130.7630   160.7320 h4         1 A1A       0.017100
     61 H32        128.0450   131.4000   162.9250 ha         1 A1A       0.131500
     62 H34        131.1810   136.0390   168.5500 hn         1 A1A       0.301500
     63 H35        132.8690   136.9560   169.1540 hn         1 A1A       0.292500
     64 H11        131.2910   129.2410   164.8150 ha         1 A1A       0.131500
@<TRIPOS>BOND
     1     1    15 1   
     2     1    17 1   
     3     1    28 1   
     4     1    31 1   
     5     2    16 1   
     6     2    17 1   
     7     2    32 1   
     8     2    33 1   
     9     3    17 1   
    10     3    18 1   
    11     3    34 1   
    12     3    35 1   
    13     4    18 ar  
    14     4    19 ar  
    15     4    36 1   
    16     5     6 ar  
    17     5    20 ar  
    18     5    37 1   
    19     6    18 ar  
    20     6    38 1   
    21     7    21 1   
    22     7    26 1   
    23     7    39 1   
    24     7    40 1   
    25     8    22 ar  
    26     8    23 ar  
    27     8    64 1   
    28     9    10 1   
    29     9    41 1   
    30     9    42 1   
    31     9    43 1   
    32    10    22 1   
    33    10    26 1   
    34    10    44 1   
    35    11    12 1   
    36    11    26 1   
    37    11    45 1   
    38    11    46 1   
    39    12    13 1   
    40    12    47 1   
    41    12    48 1   
    42    13    21 1   
    43    13    27 1   
    44    13    49 1   
    45    14    27 1   
    46    14    28 1   
    47    14    30 2   
    48    15    16 1   
    49    15    50 1   
    50    15    51 1   
    51    16    52 1   
    52    16    53 1   
    53    17    54 1   
    54    19    20 ar  
    55    19    55 1   
    56    20    56 1   
    57    21    57 1   
    58    21    58 1   
    59    22    25 ar  
    60    23    29 ar  
    61    23    59 1   
    62    24    25 ar  
    63    24    29 ar  
    64    24    60 1   
    65    25    61 1   
    66    27    62 1   
    67    28    63 1   
@<TRIPOS>SUBSTRUCTURE
     1 A1A         1 TEMP              0 ****  ****    0 ROOT
