@<TRIPOS>MOLECULE
A1A
   86    92     1     0     0
SMALL
abcg2


@<TRIPOS>ATOM
      1 C15        159.5530   163.7360   162.9540 ca         1 A1A      -0.072300
      2 C12        166.9170   163.3490   166.7900 c2         1 A1A       0.066000
      3 C10        158.5120   162.8700   162.2910 c6         1 A1A       0.250800
      4 C18        159.7330   165.0590   162.5560 ca         1 A1A      -0.083300
      5 C13        164.8550   164.1920   167.7170 ca         1 A1A       0.028200
      6 C20        159.1520   162.0340   161.1540 c3         1 A1A      -0.027100
      7 C16        164.6030   161.1560   166.4910 c3         1 A1A      -0.042100
      8 C17        157.3620   165.0420   161.9430 c6         1 A1A       0.191800
      9 C11        164.1640   163.6110   166.6470 ca         1 A1A      -0.145300
     10 C19        158.7150   165.6630   161.6370 c6         1 A1A      -0.032100
     11 C14        166.2730   163.9240   167.8310 ce         1 A1A      -0.316200
     12 C09        164.8500   162.5400   165.8420 c6         1 A1A       0.300800
     13 C21        162.8400   163.9520   166.4130 ca         1 A1A       0.141100
     14 C22        160.3810   163.2030   163.9350 ca         1 A1A      -0.116000
     15 C24        164.1850   165.0840   168.5550 ca         1 A1A      -0.144000
     16 C25        161.4240   163.9410   164.4720 ca         1 A1A       0.122100
     17 C26        164.8880   160.0390   165.5350 ca         1 A1A      -0.084300
     18 C27        160.7930   165.7860   163.0810 ca         1 A1A      -0.101000
     19 C28        162.1620   164.8340   167.2550 ca         1 A1A       0.038100
     20 C30        160.2300   161.0800   161.5740 ca         1 A1A      -0.086300
     21 C31        162.8510   165.3890   168.3340 ca         1 A1A       0.121100
     22 C32        161.6640   165.2360   164.0100 ca         1 A1A       0.064100
     23 C33        163.9080   159.7020   164.5990 ca         1 A1A      -0.142000
     24 C34        166.1030   159.3790   165.4790 ca         1 A1A      -0.092000
     25 C35        161.5770   161.4140   161.4400 ca         1 A1A      -0.091500
     26 C36        159.9180   159.8330   162.1070 ca         1 A1A      -0.091500
     27 C37        164.1440   158.7570   163.6220 ca         1 A1A       0.094100
     28 C38        166.3500   158.4150   164.5030 ca         1 A1A      -0.181000
     29 C39        162.2420   159.3010   162.3530 ca         1 A1A       0.104100
     30 C40        162.5810   160.5380   161.8200 ca         1 A1A      -0.128500
     31 C41        160.9100   158.9470   162.5040 ca         1 A1A      -0.128500
     32 C42        165.3820   158.0990   163.5580 ca         1 A1A       0.119100
     33 C43        159.9130   164.2770   167.5820 c3         1 A1A       0.147900
     34 C44        163.9220   165.7770   163.7820 c3         1 A1A       0.147900
     35 C45        162.2170   167.5910   168.7770 c3         1 A1A       0.152900
     36 C46        166.7660   156.5340   162.4480 c3         1 A1A       0.145900
     37 N07        166.2720   162.8100   165.7270 nh         1 A1A      -0.688400
     38 N08        157.4030   163.6190   161.6960 n3         1 A1A      -0.760600
     39 O01        162.2070   163.3040   165.3910 os         1 A1A      -0.263200
     40 O02        160.8670   165.1670   167.0190 os         1 A1A      -0.342100
     41 O03        162.1930   166.2300   169.1800 os         1 A1A      -0.360100
     42 O04        162.7050   165.9710   164.4860 os         1 A1A      -0.346100
     43 O05        163.2060   158.3900   162.7020 os         1 A1A      -0.234200
     44 O06        165.5250   157.1960   162.5690 os         1 A1A      -0.320100
     45 H1         168.0000   163.3070   166.7530 h4         1 A1A       0.183000
     46 H2         158.1250   162.1750   163.0500 h1         1 A1A       0.043700
     47 H3         159.5460   162.7330   160.4130 hc         1 A1A       0.057700
     48 H4         158.3460   161.4780   160.6680 hc         1 A1A       0.057700
     49 H5         163.5590   161.1070   166.8100 hc         1 A1A       0.063700
     50 H6         165.2150   161.0800   167.3930 hc         1 A1A       0.063700
     51 H7         157.0750   165.2920   162.9780 h1         1 A1A       0.034200
     52 H8         156.5970   165.4740   161.2930 h1         1 A1A       0.034200
     53 H9         158.9660   165.4850   160.5860 hc         1 A1A       0.058200
     54 H10        158.6720   166.7450   161.7750 hc         1 A1A       0.058200
     55 H11        166.8350   164.3090   168.6690 ha         1 A1A       0.193000
     56 H12        160.2220   162.1910   164.2910 ha         1 A1A       0.130000
     57 H13        168.0000   162.6450   164.5850 h1         1 A1A       0.037700
     58 H14        166.6230   161.7450   163.9580 h1         1 A1A       0.037700
     59 H15        166.6890   163.5050   163.7740 h1         1 A1A       0.037700
     60 H16        164.7060   165.5460   169.3860 ha         1 A1A       0.127000
     61 H17        160.9490   166.8140   162.7720 ha         1 A1A       0.124000
     62 H18        156.1760   161.9300   161.5900 h1         1 A1A       0.029367
     63 H19        155.7970   162.9910   162.9560 h1         1 A1A       0.029367
     64 H20        155.3600   163.4610   161.3060 h1         1 A1A       0.029367
     65 H21        162.9490   160.2060   164.6400 ha         1 A1A       0.134000
     66 H22        166.8820   159.6170   166.1930 ha         1 A1A       0.116000
     67 H23        161.8490   162.3760   161.0240 ha         1 A1A       0.114500
     68 H24        158.8790   159.5440   162.2180 ha         1 A1A       0.114500
     69 H25        167.3140   157.9250   164.4870 ha         1 A1A       0.118000
     70 H26        163.6210   160.8170   161.6990 ha         1 A1A       0.126500
     71 H27        160.6500   157.9810   162.9190 ha         1 A1A       0.126500
     72 H28        158.9270   164.6740   167.3460 h1         1 A1A       0.036700
     73 H29        159.9940   163.2720   167.1600 h1         1 A1A       0.036700
     74 H30        160.0170   164.2110   168.6680 h1         1 A1A       0.036700
     75 H31        164.6680   166.4210   164.2440 h1         1 A1A       0.035033
     76 H32        164.2710   164.7420   163.8420 h1         1 A1A       0.035033
     77 H33        163.8210   166.0480   162.7280 h1         1 A1A       0.035033
     78 H34        161.6600   168.1580   169.5200 h1         1 A1A       0.037700
     79 H35        163.2390   167.9770   168.7330 h1         1 A1A       0.037700
     80 H36        161.7470   167.7360   167.8000 h1         1 A1A       0.037700
     81 H37        166.6810   155.8730   161.5880 h1         1 A1A       0.039700
     82 H38        167.5880   157.2340   162.2740 h1         1 A1A       0.039700
     83 H39        166.9980   155.9330   163.3310 h1         1 A1A       0.039700
     84 H40        164.4400   162.5190   164.8300 h1         1 A1A       0.069700
     85 C23        166.9210   162.6720   164.4450 c3         1 A1A       0.220100
     86 C29        156.1290   162.9730   161.9060 c3         1 A1A       0.170100
@<TRIPOS>BOND
     1     1     3 1   
     2     1     4 ar  
     3     1    14 ar  
     4     2    11 2   
     5     2    37 1   
     6     2    45 1   
     7     3     6 1   
     8     3    38 1   
     9     3    46 1   
    10     4    10 1   
    11     4    18 ar  
    12     5     9 ar  
    13     5    11 1   
    14     5    15 ar  
    15     6    20 1   
    16     6    47 1   
    17     6    48 1   
    18     7    12 1   
    19     7    17 1   
    20     7    49 1   
    21     7    50 1   
    22     8    10 1   
    23     8    38 1   
    24     8    51 1   
    25     8    52 1   
    26     9    12 1   
    27     9    13 ar  
    28    10    53 1   
    29    10    54 1   
    30    11    55 1   
    31    12    37 1   
    32    12    84 1   
    33    13    19 ar  
    34    13    39 1   
    35    14    16 ar  
    36    14    56 1   
    37    15    21 ar  
    38    15    60 1   
    39    16    22 ar  
    40    16    39 1   
    41    17    23 ar  
    42    17    24 ar  
    43    18    22 ar  
    44    18    61 1   
    45    19    21 ar  
    46    19    40 1   
    47    20    25 ar  
    48    20    26 ar  
    49    21    41 1   
    50    22    42 1   
    51    23    27 ar  
    52    23    65 1   
    53    24    28 ar  
    54    24    66 1   
    55    25    30 ar  
    56    25    67 1   
    57    26    31 ar  
    58    26    68 1   
    59    27    32 ar  
    60    27    43 1   
    61    28    32 ar  
    62    28    69 1   
    63    29    30 ar  
    64    29    31 ar  
    65    29    43 1   
    66    30    70 1   
    67    31    71 1   
    68    32    44 1   
    69    33    40 1   
    70    33    72 1   
    71    33    73 1   
    72    33    74 1   
    73    34    42 1   
    74    34    75 1   
    75    34    76 1   
    76    34    77 1   
    77    35    41 1   
    78    35    78 1   
    79    35    79 1   
    80    35    80 1   
    81    36    44 1   
    82    36    81 1   
    83    36    82 1   
    84    36    83 1   
    85    37    85 1   
    86    38    86 1   
    87    57    85 1   
    88    58    85 1   
    89    59    85 1   
    90    62    86 1   
    91    63    86 1   
    92    64    86 1   
@<TRIPOS>SUBSTRUCTURE
     1 A1A         1 TEMP              0 ****  ****    0 ROOT
