@<TRIPOS>MOLECULE
A1A
   43    45     1     0     0
SMALL
abcg2


@<TRIPOS>ATOM
      1 C01        164.4250   170.7720   188.5400 c3         1 A1A      -0.064900
      2 C02        165.6530   171.4670   188.0560 cc         1 A1A       0.056600
      3 C03        166.0700   171.3490   186.7760 cd         1 A1A      -0.349200
      4 C04        167.2500   172.0180   186.2840 c          1 A1A       0.677300
      5 C07        167.5600   172.9300   188.4640 ca         1 A1A       0.206100
      6 C08        166.4210   172.2890   188.9590 ca         1 A1A      -0.196800
      7 C09        166.1010   172.4980   190.3030 ca         1 A1A      -0.022000
      8 C10        166.8690   173.3030   191.1180 ca         1 A1A      -0.215000
      9 C11        168.0110   173.9230   190.5950 ca         1 A1A       0.207100
     10 C12        168.3530   173.7350   189.2600 ca         1 A1A      -0.179000
     11 C14        168.6530   174.8860   192.6740 c6         1 A1A       0.425300
     12 C15        169.9470   175.4490   193.2490 c6         1 A1A       0.133500
     13 C16        169.7600   175.7430   194.7440 c6         1 A1A       0.115300
     14 C17        168.2950   176.0550   195.1220 c6         1 A1A       0.111300
     15 C18        167.4400   176.5640   193.9680 c6         1 A1A       0.208300
     16 C20        167.5780   178.0350   193.6220 c3         1 A1A       0.148600
     17 N24        171.0560   174.5630   192.9510 n8         1 A1A      -0.973200
     18 O05        167.6830   171.9610   185.1600 o          1 A1A      -0.491000
     19 O06        167.9370   172.7860   187.1730 os         1 A1A      -0.337200
     20 O13        168.8410   174.7140   191.2950 os         1 A1A      -0.311100
     21 O19        167.5660   175.7520   192.8090 os         1 A1A      -0.484000
     22 O22        167.6470   174.8720   195.5510 oh         1 A1A      -0.718000
     23 O23        170.6650   176.7610   195.0870 oh         1 A1A      -0.632000
     24 H1         163.6970   171.4900   188.9190 hc         1 A1A       0.053033
     25 H2         163.9570   170.1990   187.7430 hc         1 A1A       0.053033
     26 H3         164.6590   170.0910   189.3600 hc         1 A1A       0.053033
     27 H4         165.5280   170.7430   186.0630 ha         1 A1A       0.209000
     28 H5         165.2230   172.0260   190.7230 ha         1 A1A       0.114000
     29 H6         166.5580   173.4480   192.1420 ha         1 A1A       0.134000
     30 H7         169.2340   174.2130   188.8500 ha         1 A1A       0.155000
     31 H8         168.4350   173.9100   193.1360 h2         1 A1A       0.044700
     32 H9         170.1330   176.4000   192.7440 h1         1 A1A       0.123700
     33 H10        170.0180   174.8170   195.2820 h1         1 A1A       0.016700
     34 H11        168.2860   176.8170   195.9150 h1         1 A1A       0.049700
     35 H12        166.3990   176.4690   194.3020 h1         1 A1A       0.076700
     36 H13        167.3080   178.6010   194.5240 h1         1 A1A       0.028700
     37 H14        166.8130   178.2650   192.8690 h1         1 A1A       0.028700
     38 H16        171.9230   175.0160   193.2120 hn         1 A1A       0.399500
     39 H17        170.9980   173.7250   193.5190 hn         1 A1A       0.399500
     40 H18        168.8470   179.2680   192.8440 ho         1 A1A       0.509000
     41 H19        168.1300   174.5100   196.3010 ho         1 A1A       0.505000
     42 H20        170.7300   176.8000   196.0460 ho         1 A1A       0.440000
     43 O21        168.8620   178.3610   193.1610 oh         1 A1A      -0.708000
@<TRIPOS>BOND
     1     1     2 1   
     2     1    24 1   
     3     1    25 1   
     4     1    26 1   
     5     2     3 2   
     6     2     6 1   
     7     3     4 1   
     8     3    27 1   
     9     4    18 2   
    10     4    19 1   
    11     5     6 ar  
    12     5    10 ar  
    13     5    19 1   
    14     6     7 ar  
    15     7     8 ar  
    16     7    28 1   
    17     8     9 ar  
    18     8    29 1   
    19     9    10 ar  
    20     9    20 1   
    21    10    30 1   
    22    11    12 1   
    23    11    20 1   
    24    11    21 1   
    25    11    31 1   
    26    12    13 1   
    27    12    17 1   
    28    12    32 1   
    29    13    14 1   
    30    13    23 1   
    31    13    33 1   
    32    14    15 1   
    33    14    22 1   
    34    14    34 1   
    35    15    16 1   
    36    15    21 1   
    37    15    35 1   
    38    16    36 1   
    39    16    37 1   
    40    16    43 1   
    41    17    38 1   
    42    17    39 1   
    43    22    41 1   
    44    23    42 1   
    45    40    43 1   
@<TRIPOS>SUBSTRUCTURE
     1 A1A         1 TEMP              0 ****  ****    0 ROOT
