@<TRIPOS>MOLECULE
A1A
   43    45     1     0     0
SMALL
No Charge or Current Charge


@<TRIPOS>ATOM
      1 C8          -9.4490     1.0220   -15.2140 c3         1 A1A       0.166600
      2 C5          -7.4820    -0.6050   -13.0270 cc         1 A1A       0.520500
      3 C6          -7.4970    -1.3640   -14.2760 ca         1 A1A      -0.168900
      4 N1          -1.7060     4.4190   -12.3390 nc         1 A1A      -0.360300
      5 C2          -2.5660     2.8990   -13.8320 cc         1 A1A       0.094900
      6 N2          -6.4760     0.2560   -12.8640 nd         1 A1A      -0.587300
      7 N3          -8.4910    -0.8570   -12.1050 n          1 A1A      -0.298300
      8 C4          -6.4070     1.0030   -11.6650 cd         1 A1A       0.028400
      9 C15         -8.4870    -0.2030   -10.8790 c          1 A1A       0.499200
     10 C14         -7.3830     0.7640   -10.6990 cc         1 A1A       0.056900
     11 O4          -7.4440     1.3830    -9.4880 oh         1 A1A      -0.468100
     12 C           -5.3120     2.0200   -11.4290 c          1 A1A       0.642300
     13 N           -4.4670     2.0920   -12.5210 ns         1 A1A      -0.368100
     14 C1          -3.3420     2.8920   -12.7150 cd         1 A1A      -0.054400
     15 C3          -2.7790     3.8370   -11.8270 cd         1 A1A       0.262900
     16 O1          -1.5570     3.8150   -13.6470 os         1 A1A      -0.064700
     17 O           -5.1530     2.7090   -10.4280 o          1 A1A      -0.569100
     18 C16         -9.5990    -1.8110   -12.3920 c3         1 A1A       0.075300
     19 C13         -7.2020    -2.7450   -14.2690 ca         1 A1A      -0.064000
     20 C12         -7.2010    -3.4770   -15.4690 ca         1 A1A      -0.122000
     21 C11         -7.4910    -2.8370   -16.6860 ca         1 A1A      -0.053000
     22 C10         -7.7860    -1.4640   -16.7020 ca         1 A1A      -0.052900
     23 Br          -8.1850    -0.6130   -18.3750 br         1 A1A      -0.067100
     24 C7          -7.7950    -0.7280   -15.5000 ca         1 A1A       0.174100
     25 O2          -8.1060     0.6100   -15.5290 os         1 A1A      -0.338100
     26 C9          -9.5230     2.5680   -15.2550 c3         1 A1A       0.163600
     27 O3          -8.7770     3.1570   -14.1740 oh         1 A1A      -0.648000
     28 H1         -10.1530     0.6090   -15.9480 h1         1 A1A       0.039700
     29 H2          -9.7500     0.6690   -14.2200 h1         1 A1A       0.039700
     30 H3          -2.6040     2.3530   -14.7640 h4         1 A1A       0.060100
     31 H4          -8.2330     1.0110    -9.0290 ho         1 A1A       0.494000
     32 H5          -4.7570     1.4520   -13.2560 hn         1 A1A       0.360500
     33 H6          -3.1070     4.1210   -10.8360 h4         1 A1A       0.070100
     34 H7         -10.5020    -1.5500   -11.8250 h1         1 A1A       0.060367
     35 H8          -9.8650    -1.7910   -13.4560 h1         1 A1A       0.060367
     36 H9          -9.2900    -2.8280   -12.1180 h1         1 A1A       0.060367
     37 H10         -6.9650    -3.2490   -13.3340 ha         1 A1A       0.127000
     38 H11         -6.9710    -4.5400   -15.4560 ha         1 A1A       0.128000
     39 H12         -7.4870    -3.4060   -17.6130 ha         1 A1A       0.136000
     40 H13         -9.1420     2.9190   -16.2230 h1         1 A1A       0.032200
     41 H14        -10.5780     2.8680   -15.1870 h1         1 A1A       0.032200
     42 H15         -8.8270     4.1320   -14.2890 ho         1 A1A       0.449000
     43 O5          -9.3310    -0.4040   -10.0100 o          1 A1A      -0.555000
@<TRIPOS>BOND
     1     1    25 1   
     2     1    26 1   
     3     1    28 1   
     4     1    29 1   
     5     2     3 1   
     6     2     6 2   
     7     2     7 1   
     8     3    19 ar  
     9     3    24 ar  
    10     4    15 2   
    11     4    16 1   
    12     5    14 2   
    13     5    16 1   
    14     5    30 1   
    15     6     8 1   
    16     7     9 1   
    17     7    18 1   
    18     8    10 2   
    19     8    12 1   
    20     9    10 1   
    21     9    43 2   
    22    10    11 1   
    23    11    31 1   
    24    12    13 1   
    25    12    17 2   
    26    13    14 1   
    27    13    32 1   
    28    14    15 1   
    29    15    33 1   
    30    18    34 1   
    31    18    35 1   
    32    18    36 1   
    33    19    20 ar  
    34    19    37 1   
    35    20    21 ar  
    36    20    38 1   
    37    21    22 ar  
    38    21    39 1   
    39    22    23 1   
    40    22    24 ar  
    41    24    25 1   
    42    26    27 1   
    43    26    40 1   
    44    26    41 1   
    45    27    42 1   
@<TRIPOS>SUBSTRUCTURE
     1 A1A         1 TEMP              0 ****  ****    0 ROOT
