@<TRIPOS>MOLECULE
A1A
   48    50     1     0     0
SMALL
abcg2


@<TRIPOS>ATOM
      1 C01        165.7580   172.6570   186.8840 c3         1 A1A      -0.065900
      2 C02        167.1900   172.3250   187.1360 cc         1 A1A       0.052600
      3 C03        167.9030   171.5780   186.2650 cd         1 A1A      -0.343200
      4 C04        169.2890   171.2430   186.4870 c          1 A1A       0.676300
      5 C07        169.1890   172.4760   188.5220 ca         1 A1A       0.204100
      6 C08        167.8430   172.8000   188.3330 ca         1 A1A      -0.185800
      7 C09        167.2200   173.5610   189.3250 ca         1 A1A      -0.022000
      8 C10        167.8960   173.9800   190.4530 ca         1 A1A      -0.201000
      9 C11        169.2410   173.6290   190.6140 ca         1 A1A       0.191100
     10 C12        169.8910   172.8800   189.6430 ca         1 A1A      -0.174000
     11 C14        169.3780   174.3430   192.8780 c6         1 A1A       0.381300
     12 C15        170.3880   174.1080   194.0080 c6         1 A1A       0.100700
     13 C16        170.1460   175.1120   195.1540 c6         1 A1A       0.135300
     14 C17        168.6690   175.5160   195.2240 c6         1 A1A       0.095300
     15 C18        168.1900   176.0810   193.8740 c6         1 A1A       0.183300
     16 C20        168.1200   177.5930   193.8890 c3         1 A1A       0.172600
     17 C27        172.4640   172.1010   193.4240 c3         1 A1A      -0.181100
     18 N24        170.3360   172.7390   194.4530 ns         1 A1A      -0.517900
     19 O05        169.9820   170.5720   185.7630 o          1 A1A      -0.486000
     20 O06        169.8650   171.7330   187.6180 os         1 A1A      -0.336200
     21 O13        169.9940   173.9750   191.6800 os         1 A1A      -0.334100
     22 O19        169.0420   175.6900   192.8070 os         1 A1A      -0.440000
     23 O22        167.8780   174.3860   195.5310 oh         1 A1A      -0.718000
     24 O23        170.9700   176.2290   194.9270 oh         1 A1A      -0.634000
     25 O26        170.9990   170.6030   194.5750 o          1 A1A      -0.596100
     26 H1         165.6100   173.7380   186.8450 hc         1 A1A       0.054033
     27 H2         165.4140   172.2300   185.9440 hc         1 A1A       0.054033
     28 H3         165.1230   172.2770   187.6860 hc         1 A1A       0.054033
     29 H4         167.4540   171.1970   185.3580 ha         1 A1A       0.211000
     30 H5         166.1810   173.8390   189.2130 ha         1 A1A       0.118000
     31 H6         167.3750   174.5850   191.1800 ha         1 A1A       0.137000
     32 H7         170.9300   172.6030   189.7690 ha         1 A1A       0.150000
     33 H8         168.4810   173.7240   193.0430 h2         1 A1A       0.053700
     34 H9         171.3890   174.3160   193.6260 h1         1 A1A       0.106700
     35 H10        170.4170   174.6170   196.0970 h1         1 A1A       0.045700
     36 H11        168.5470   176.2850   196.0010 h1         1 A1A       0.042700
     37 H12        167.1790   175.6850   193.6900 h1         1 A1A       0.068700
     38 H13        169.1160   178.0030   194.0960 h1         1 A1A       0.028200
     39 H14        167.4720   177.8810   194.7270 h1         1 A1A       0.028200
     40 H15        173.0820   171.2140   193.3150 hc         1 A1A       0.066033
     41 H16        172.2270   172.4840   192.4310 hc         1 A1A       0.066033
     42 H17        173.0460   172.8660   193.9390 hc         1 A1A       0.066033
     43 H18        169.4950   172.4540   194.9360 hn         1 A1A       0.313500
     44 H19        167.5840   178.9980   192.6750 ho         1 A1A       0.508000
     45 H20        168.0690   174.1120   196.4350 ho         1 A1A       0.514000
     46 H21        170.9060   176.8160   195.6890 ho         1 A1A       0.446000
     47 O21        167.6100   178.0380   192.6570 oh         1 A1A      -0.701000
     48 C25        171.2140   171.7430   194.1920 c          1 A1A       0.613100
@<TRIPOS>BOND
     1     1     2 1   
     2     1    26 1   
     3     1    27 1   
     4     1    28 1   
     5     2     3 2   
     6     2     6 1   
     7     3     4 1   
     8     3    29 1   
     9     4    19 2   
    10     4    20 1   
    11     5     6 ar  
    12     5    10 ar  
    13     5    20 1   
    14     6     7 ar  
    15     7     8 ar  
    16     7    30 1   
    17     8     9 ar  
    18     8    31 1   
    19     9    10 ar  
    20     9    21 1   
    21    10    32 1   
    22    11    12 1   
    23    11    21 1   
    24    11    22 1   
    25    11    33 1   
    26    12    13 1   
    27    12    18 1   
    28    12    34 1   
    29    13    14 1   
    30    13    24 1   
    31    13    35 1   
    32    14    15 1   
    33    14    23 1   
    34    14    36 1   
    35    15    16 1   
    36    15    22 1   
    37    15    37 1   
    38    16    38 1   
    39    16    39 1   
    40    16    47 1   
    41    17    40 1   
    42    17    41 1   
    43    17    42 1   
    44    17    48 1   
    45    18    43 1   
    46    18    48 1   
    47    23    45 1   
    48    24    46 1   
    49    25    48 2   
    50    44    47 1   
@<TRIPOS>SUBSTRUCTURE
     1 A1A         1 TEMP              0 ****  ****    0 ROOT
