@<TRIPOS>MOLECULE
A1A
   46    48     1     0     0
SMALL
abcg2


@<TRIPOS>ATOM
      1 C01         25.9390    53.7610    18.8800 c3         1 A1A       0.275900
      2 C02         26.8750    54.2390    19.9560 ca         1 A1A      -0.012300
      3 C03         28.2520    54.0090    19.9160 ca         1 A1A      -0.079900
      4 C04         28.9450    53.3880    18.7620 ce         1 A1A       0.456800
      5 C05         29.6660    53.2850    16.5610 c3         1 A1A      -0.005500
      6 C06         28.7680    53.0400    15.3380 c3         1 A1A       0.006800
      7 C07         28.4990    55.3620    14.0840 ca         1 A1A      -0.091800
      8 C08         27.3790    56.1950    13.8270 ca         1 A1A       0.329500
      9 C09         26.6740    54.4160    14.9570 cc         1 A1A      -0.122100
     10 C10         28.5670    57.7300    12.7160 ca         1 A1A       0.299900
     11 C11         29.7460    56.9990    12.8870 ca         1 A1A      -0.240000
     12 C12         29.7230    55.7980    13.5780 ca         1 A1A      -0.004000
     13 C13         30.9340    54.1120    16.2100 c          1 A1A       0.724000
     14 C14         29.0180    54.3890    21.0130 ca         1 A1A       0.084100
     15 C15         28.4070    54.9990    22.1170 ca         1 A1A       0.202300
     16 C16         29.2140    55.4220    23.3080 c3         1 A1A      -0.121400
     17 C17         26.3660    54.8460    21.0940 ca         1 A1A       0.275900
     18 C28         28.0210    54.2270    14.8190 cd         1 A1A      -0.086400
     19 N18         28.9130    53.9110    17.6170 n2         1 A1A      -0.512900
     20 N27         27.3830    57.3450    13.1720 nb         1 A1A      -0.730000
     21 N29         26.2890    55.5940    14.3710 na         1 A1A      -0.342400
     22 N30         27.1010    55.2170    22.1350 nb         1 A1A      -0.696000
     23 O19         23.5270    52.2460    17.8340 o          1 A1A      -0.927167
     24 O20         25.6560    51.7190    16.5090 o          1 A1A      -0.927167
     25 O21         25.8260    52.3730    18.9900 os         1 A1A      -0.579400
     26 O22         31.6340    53.6280    15.2960 o          1 A1A      -0.747500
     27 O23         31.1580    55.1420    16.8650 o          1 A1A      -0.747500
     28 O24         30.3460    54.1640    20.9460 oh         1 A1A      -0.518100
     29 O25         24.9010    50.1360    18.3890 o          1 A1A      -0.927167
     30 P26         24.8820    51.5460    17.8190 p5         1 A1A       1.279900
     31 H012        24.9730    54.2660    19.0170 h1         1 A1A       0.014700
     32 H011        26.3160    54.0720    17.8990 h1         1 A1A       0.014700
     33 H041        29.5130    52.4730    18.9740 h4         1 A1A      -0.038200
     34 H051        30.0350    52.2940    16.8780 h1         1 A1A       0.014700
     35 H061        29.3970    52.6080    14.5560 hc         1 A1A       0.067700
     36 H062        28.0310    52.2790    15.6030 hc         1 A1A       0.067700
     37 H111        30.6700    57.3820    12.4760 ha         1 A1A       0.083000
     38 H121        30.6240    55.2170    13.7190 ha         1 A1A       0.160000
     39 H162        28.5610    55.8640    24.0570 hc         1 A1A       0.019033
     40 H161        29.7300    54.5780    23.7760 hc         1 A1A       0.019033
     41 H163        29.9730    56.1650    23.0500 hc         1 A1A       0.019033
     42 H171        25.2990    55.0360    21.1670 h4         1 A1A       0.009100
     43 H291        25.3480    55.9490    14.3330 hn         1 A1A       0.336000
     44 H6          30.7930    54.4300    21.7580 ho         1 A1A       0.429000
     45 H2          25.9640    53.7580    15.4410 h4         1 A1A       0.304000
     46 H101        28.5910    58.6710    12.1780 h4         1 A1A      -0.034900
@<TRIPOS>BOND
     1     1     2 1   
     2     1    25 1   
     3     1    31 1   
     4     1    32 1   
     5     2     3 ar  
     6     2    17 ar  
     7     3     4 1   
     8     3    14 ar  
     9     4    19 2   
    10     4    33 1   
    11     5     6 1   
    12     5    13 1   
    13     5    19 1   
    14     5    34 1   
    15     6    18 1   
    16     6    35 1   
    17     6    36 1   
    18     7     8 ar  
    19     7    12 ar  
    20     7    18 1   
    21     8    20 ar  
    22     8    21 1   
    23     9    18 2   
    24     9    21 1   
    25     9    45 1   
    26    10    11 ar  
    27    10    20 ar  
    28    10    46 1   
    29    11    12 ar  
    30    11    37 1   
    31    12    38 1   
    32    13    26 1   
    33    13    27 1   
    34    14    15 ar  
    35    14    28 1   
    36    15    16 1   
    37    15    22 ar  
    38    16    39 1   
    39    16    40 1   
    40    16    41 1   
    41    17    22 ar  
    42    17    42 1   
    43    21    43 1   
    44    23    30 1   
    45    24    30 1   
    46    25    30 1   
    47    28    44 1   
    48    29    30 1   
@<TRIPOS>SUBSTRUCTURE
     1 A1A         1 TEMP              0 ****  ****    0 ROOT
