@<TRIPOS>MOLECULE
A1A
   91    96     1     0     0
SMALL
abcg2


@<TRIPOS>ATOM
      1 C10         10.3360     1.0430   -24.9860 c6         1 A1A       0.137100
      2 N12         15.8030     1.5560   -26.2000 ns         1 A1A      -0.478900
      3 C13         16.0490     2.6840   -25.5120 c          1 A1A       0.602100
      4 C15         17.5150     3.0410   -25.3620 c5         1 A1A      -0.145700
      5 C20         19.3440     4.3280   -26.6770 cy         1 A1A       0.112500
      6 C22         17.4530     4.3080   -27.6960 cy         1 A1A       0.112500
      7 C26         19.1600     3.9440   -31.7360 cx         1 A1A      -0.084400
      8 C01         14.9280     0.5410   -28.8000 c3         1 A1A      -0.124100
      9 C02         14.4010     0.0100   -27.4750 c3         1 A1A       0.168300
     10 C03         14.4630     1.0620   -26.3620 c3         1 A1A       0.042700
     11 C04         13.9680     0.4610   -25.0360 c          1 A1A       0.609100
     12 C07         12.1080    -0.3670   -23.7100 c6         1 A1A       0.064000
     13 C08         11.3350     0.6680   -22.8980 c6         1 A1A       0.137100
     14 C11         11.6070     0.7750   -25.7970 c6         1 A1A       0.064000
     15 C16         17.8480     3.5200   -23.9510 c5         1 A1A       0.119000
     16 C18         17.4130     5.4390   -25.3540 c5         1 A1A       0.119000
     17 C19         17.8650     4.2660   -26.2110 cy         1 A1A      -0.105000
     18 C25         18.6300     4.3400   -30.3930 cx         1 A1A      -0.226700
     19 C27         18.2060     3.0340   -31.0330 cx         1 A1A      -0.094000
     20 C29         18.7220     1.7360   -30.4590 c3         1 A1A      -0.064600
     21 C32         17.4760     7.1390   -22.8920 cc         1 A1A      -0.309600
     22 C33         17.9300     7.9970   -21.9280 cd         1 A1A       0.331900
     23 C35         16.7610     9.4420   -23.0690 cc         1 A1A       0.414300
     24 C38         14.9080    -2.3010   -27.7370 c3         1 A1A       0.166600
     25 C39         15.3070    -3.4980   -26.8930 c6         1 A1A      -0.064700
     26 C40         16.7750    -3.4580   -26.4680 c6         1 A1A      -0.069400
     27 C41         17.1570    -4.6930   -25.6570 c6         1 A1A      -0.073400
     28 C42         16.8550    -5.9770   -26.4240 c6         1 A1A      -0.075400
     29 C43         15.3920    -6.0240   -26.8510 c6         1 A1A      -0.073400
     30 C44         15.0140    -4.7880   -27.6610 c6         1 A1A      -0.069400
     31 N06         12.6390     0.2610   -24.9040 n          1 A1A      -0.407800
     32 N17         17.6290     4.9620   -23.9970 n          1 A1A      -0.404800
     33 N21         18.8590     4.4380   -28.0380 nj         1 A1A      -0.425800
     34 N34         17.5330     9.2890   -22.0400 nd         1 A1A      -0.638000
     35 O05         14.7700     0.1470   -24.1720 o          1 A1A      -0.585100
     36 O09         10.6590     1.5910   -23.7340 os         1 A1A      -0.437000
     37 O14         15.1570     3.3960   -25.0750 o          1 A1A      -0.590100
     38 O24         20.7410     4.2250   -29.2350 o          1 A1A      -0.595100
     39 O31         18.1000     5.1690   -21.8140 o          1 A1A      -0.595100
     40 O37         15.1050    -1.1120   -27.0030 os         1 A1A      -0.460000
     41 S36         16.4790     8.0250   -23.9830 ss         1 A1A      -0.003400
     42 H101         9.7370     0.1290   -24.8870 h1         1 A1A       0.053450
     43 H102         9.7200     1.7680   -25.5180 h1         1 A1A       0.053450
     44 H121        16.5690     0.9270   -26.3890 hn         1 A1A       0.332500
     45 H151        18.1390     2.1900   -25.6400 hc         1 A1A       0.076700
     46 H201        19.9120     5.1930   -26.3260 h1         1 A1A       0.062200
     47 H202        19.9250     3.4220   -26.4860 h1         1 A1A       0.062200
     48 H221        16.8340     5.1620   -27.9810 h1         1 A1A       0.062200
     49 H222        16.9860     3.3940   -28.0740 h1         1 A1A       0.062200
     50 H262        20.2010     3.6500   -31.7910 hc         1 A1A       0.084700
     51 H283        16.1010     2.6690   -30.7370 hc         1 A1A       0.039533
     52 H282        16.4470     3.9220   -31.9280 hc         1 A1A       0.039533
     53 H281        16.6950     2.2250   -32.3360 hc         1 A1A       0.039533
     54 H011        14.7640    -0.1810   -29.6010 hc         1 A1A       0.045367
     55 H013        14.4020     1.4560   -29.0750 hc         1 A1A       0.045367
     56 H012        15.9940     0.7620   -28.7590 hc         1 A1A       0.045367
     57 H021        13.3430    -0.2520   -27.6190 h1         1 A1A       0.039700
     58 H031        13.8330     1.8980   -26.6710 h1         1 A1A       0.087700
     59 H071        11.4660    -1.2000   -24.0050 h1         1 A1A       0.056700
     60 H072        12.9150    -0.7820   -23.1130 h1         1 A1A       0.056700
     61 H082        10.6320     0.1530   -22.2310 h1         1 A1A       0.053450
     62 H081        12.0220     1.2480   -22.2780 h1         1 A1A       0.053450
     63 H111        11.3780     0.0690   -26.6010 h1         1 A1A       0.056700
     64 H112        11.9370     1.7050   -26.2560 h1         1 A1A       0.056700
     65 H162        17.2320     3.0500   -23.1830 h1         1 A1A       0.071200
     66 H161        18.8920     3.2970   -23.7160 h1         1 A1A       0.071200
     67 H181        18.0000     6.3320   -25.5740 h1         1 A1A       0.065200
     68 H182        16.3600     5.6590   -25.5430 h1         1 A1A       0.065200
     69 H251        17.8630     5.1100   -30.3670 hc         1 A1A       0.092700
     70 H293        18.1360     1.4350   -29.5870 hc         1 A1A       0.039533
     71 H291        18.6420     0.9380   -31.1990 hc         1 A1A       0.039533
     72 H292        19.7670     1.7980   -30.1550 hc         1 A1A       0.039533
     73 H331        18.5720     7.7020   -21.1100 h4         1 A1A       0.061100
     74 H351        16.3130    10.3830   -23.3590 h5         1 A1A       0.053100
     75 H382        13.8510    -2.3950   -28.0260 h1         1 A1A       0.022700
     76 H381        15.4960    -2.2920   -28.6660 h1         1 A1A       0.022700
     77 H391        14.6840    -3.4960   -25.9890 hc         1 A1A       0.060700
     78 H401        17.4010    -3.4080   -27.3670 hc         1 A1A       0.040700
     79 H402        16.9820    -2.5550   -25.8890 hc         1 A1A       0.040700
     80 H411        18.2160    -4.6510   -25.3910 hc         1 A1A       0.040700
     81 H412        16.6000    -4.6940   -24.7140 hc         1 A1A       0.040700
     82 H421        17.4920    -6.0220   -27.3130 hc         1 A1A       0.038700
     83 H422        17.1020    -6.8510   -25.8160 hc         1 A1A       0.038700
     84 H431        15.1920    -6.9280   -27.4310 hc         1 A1A       0.040700
     85 H432        14.7560    -6.0770   -25.9600 hc         1 A1A       0.040700
     86 H441        15.5780    -4.7830   -28.6000 hc         1 A1A       0.040700
     87 H442        13.9550    -4.8280   -27.9340 hc         1 A1A       0.040700
     88 C23         19.5210     4.3270   -29.1970 c          1 A1A       0.648100
     89 C30         17.7560     5.6820   -22.8720 c          1 A1A       0.658700
     90 H261        18.8080     4.5000   -32.5970 hc         1 A1A       0.084700
     91 C28         16.7850     2.9620   -31.5350 c3         1 A1A      -0.064600
@<TRIPOS>BOND
     1     1    14 1   
     2     1    36 1   
     3     1    42 1   
     4     1    43 1   
     5     2     3 1   
     6     2    10 1   
     7     2    44 1   
     8     3     4 1   
     9     3    37 2   
    10     4    15 1   
    11     4    17 1   
    12     4    45 1   
    13     5    17 1   
    14     5    33 1   
    15     5    46 1   
    16     5    47 1   
    17     6    17 1   
    18     6    33 1   
    19     6    48 1   
    20     6    49 1   
    21     7    18 1   
    22     7    19 1   
    23     7    50 1   
    24     7    90 1   
    25     8     9 1   
    26     8    54 1   
    27     8    55 1   
    28     8    56 1   
    29     9    10 1   
    30     9    40 1   
    31     9    57 1   
    32    10    11 1   
    33    10    58 1   
    34    11    31 1   
    35    11    35 2   
    36    12    13 1   
    37    12    31 1   
    38    12    59 1   
    39    12    60 1   
    40    13    36 1   
    41    13    61 1   
    42    13    62 1   
    43    14    31 1   
    44    14    63 1   
    45    14    64 1   
    46    15    32 1   
    47    15    65 1   
    48    15    66 1   
    49    16    17 1   
    50    16    32 1   
    51    16    67 1   
    52    16    68 1   
    53    18    19 1   
    54    18    69 1   
    55    18    88 1   
    56    19    20 1   
    57    19    91 1   
    58    20    70 1   
    59    20    71 1   
    60    20    72 1   
    61    21    22 2   
    62    21    41 1   
    63    21    89 1   
    64    22    34 1   
    65    22    73 1   
    66    23    34 2   
    67    23    41 1   
    68    23    74 1   
    69    24    25 1   
    70    24    40 1   
    71    24    75 1   
    72    24    76 1   
    73    25    26 1   
    74    25    30 1   
    75    25    77 1   
    76    26    27 1   
    77    26    78 1   
    78    26    79 1   
    79    27    28 1   
    80    27    80 1   
    81    27    81 1   
    82    28    29 1   
    83    28    82 1   
    84    28    83 1   
    85    29    30 1   
    86    29    84 1   
    87    29    85 1   
    88    30    86 1   
    89    30    87 1   
    90    32    89 1   
    91    33    88 1   
    92    38    88 2   
    93    39    89 2   
    94    51    91 1   
    95    52    91 1   
    96    53    91 1   
@<TRIPOS>SUBSTRUCTURE
     1 A1A         1 TEMP              0 ****  ****    0 ROOT
