@<TRIPOS>MOLECULE
A1A
   46    48     1     0     0
SMALL
No Charge or Current Charge


@<TRIPOS>ATOM
      1 C01         25.9340    53.6580    18.9530 c3         1 A1A       0.275900
      2 C02         26.8970    54.0900    20.0570 ca         1 A1A      -0.012300
      3 C03         28.3120    53.9210    20.0030 ca         1 A1A      -0.079900
      4 C04         29.0490    53.3900    18.8080 ce         1 A1A       0.456800
      5 C05         29.6050    53.3200    16.4600 c3         1 A1A      -0.005500
      6 C06         28.8200    53.1370    15.1350 c3         1 A1A       0.006800
      7 C07         28.5180    55.4240    13.8560 ca         1 A1A      -0.091800
      8 C08         27.4780    56.3070    13.6760 ca         1 A1A       0.329500
      9 C09         26.7000    54.5840    15.0020 cc         1 A1A      -0.122100
     10 C10         28.7820    57.6690    12.3570 ca         1 A1A       0.299900
     11 C11         29.8940    56.8100    12.4930 ca         1 A1A      -0.240000
     12 C12         29.7710    55.6400    13.2680 ca         1 A1A      -0.004000
     13 C13         30.7710    54.3640    16.3060 c          1 A1A       0.724000
     14 C14         29.0600    54.3380    21.1300 ca         1 A1A       0.084100
     15 C15         28.3840    54.8880    22.2530 ca         1 A1A       0.202300
     16 C16         29.1450    55.3530    23.4920 c3         1 A1A      -0.121400
     17 C17         26.3290    54.6430    21.2220 ca         1 A1A       0.275900
     18 C28         28.0320    54.3500    14.6940 cd         1 A1A      -0.086400
     19 N18         28.6690    53.5910    17.5850 n2         1 A1A      -0.512900
     20 N27         27.5800    57.4290    12.9360 nb         1 A1A      -0.730000
     21 N29         26.3910    55.8070    14.3630 na         1 A1A      -0.342400
     22 N30         27.0430    55.0390    22.3000 nb         1 A1A      -0.696000
     23 O19         23.4160    51.8220    18.7770 o          1 A1A      -0.927167
     24 O20         24.6500    52.0430    16.6860 o          1 A1A      -0.927167
     25 O21         25.9090    52.2300    18.8750 os         1 A1A      -0.579400
     26 O22         31.8070    53.9810    15.7790 o          1 A1A      -0.747500
     27 O23         30.6600    55.4780    16.8040 o          1 A1A      -0.747500
     28 O24         30.4290    54.2210    21.1310 oh         1 A1A      -0.518100
     29 O25         24.9240    50.0610    18.0640 o          1 A1A      -0.927167
     30 P26         24.6990    51.5320    18.0820 p5         1 A1A       1.279900
     31 H012        24.9330    54.0470    19.1820 h1         1 A1A       0.014700
     32 H011        26.2280    54.1040    17.9960 h1         1 A1A       0.014700
     33 H041        30.0160    52.9180    19.0020 h4         1 A1A      -0.038200
     34 H051        30.0970    52.3570    16.6550 h1         1 A1A       0.014700
     35 H061        29.5250    52.8470    14.3460 hc         1 A1A       0.067700
     36 H062        28.1410    52.2840    15.2490 hc         1 A1A       0.067700
     37 H111        30.8330    57.0510    12.0040 ha         1 A1A       0.083000
     38 H121        30.6000    54.9480    13.3980 ha         1 A1A       0.160000
     39 H162        28.4740    55.7430    24.2680 hc         1 A1A       0.019033
     40 H161        29.7120    54.5270    23.9380 hc         1 A1A       0.019033
     41 H163        29.8510    56.1530    23.2410 hc         1 A1A       0.019033
     42 H171        25.2500    54.7730    21.3030 h4         1 A1A       0.009100
     43 H291        25.4910    56.2690    14.3870 hn         1 A1A       0.336000
     44 H6          30.7750    54.5640    21.9830 ho         1 A1A       0.429000
     45 H2          25.9890    54.0010    15.5880 h4         1 A1A       0.304000
     46 H101        28.8550    58.5790    11.7620 h4         1 A1A      -0.034900
@<TRIPOS>BOND
     1     1     2 1   
     2     1    25 1   
     3     1    31 1   
     4     1    32 1   
     5     2     3 ar  
     6     2    17 ar  
     7     3     4 1   
     8     3    14 ar  
     9     4    19 2   
    10     4    33 1   
    11     5     6 1   
    12     5    13 1   
    13     5    19 1   
    14     5    34 1   
    15     6    18 1   
    16     6    35 1   
    17     6    36 1   
    18     7     8 ar  
    19     7    12 ar  
    20     7    18 1   
    21     8    20 ar  
    22     8    21 1   
    23     9    18 2   
    24     9    21 1   
    25     9    45 1   
    26    10    11 ar  
    27    10    20 ar  
    28    10    46 1   
    29    11    12 ar  
    30    11    37 1   
    31    12    38 1   
    32    13    26 1   
    33    13    27 1   
    34    14    15 ar  
    35    14    28 1   
    36    15    16 1   
    37    15    22 ar  
    38    16    39 1   
    39    16    40 1   
    40    16    41 1   
    41    17    22 ar  
    42    17    42 1   
    43    21    43 1   
    44    23    30 1   
    45    24    30 1   
    46    25    30 1   
    47    28    44 1   
    48    29    30 1   
@<TRIPOS>SUBSTRUCTURE
     1 A1A         1 TEMP              0 ****  ****    0 ROOT
