@<TRIPOS>MOLECULE
A1A
   91    96     1     0     0
SMALL
No Charge or Current Charge


@<TRIPOS>ATOM
      1 C10          9.6070    -0.5250   -23.7040 c6         1 A1A       0.137100
      2 N12         15.0620     1.6460   -24.5260 ns         1 A1A      -0.478900
      3 C13         15.4040     2.9520   -24.7910 c          1 A1A       0.602100
      4 C15         16.9370     3.1310   -24.5850 c5         1 A1A      -0.145700
      5 C20         19.2080     3.2350   -26.0100 cy         1 A1A       0.112500
      6 C22         17.5610     2.6150   -27.1540 cy         1 A1A       0.112500
      7 C26         20.8170     1.1260   -29.8640 cx         1 A1A      -0.084400
      8 C01         13.3640     1.5940   -27.1820 c3         1 A1A      -0.124100
      9 C02         13.4100     0.5080   -26.0820 c3         1 A1A       0.168300
     10 C03         13.6960     1.0730   -24.6580 c3         1 A1A       0.042700
     11 C04         13.4590    -0.0250   -23.5780 c          1 A1A       0.609100
     12 C07         11.9550    -1.7140   -22.4810 c6         1 A1A       0.064000
     13 C08         10.5720    -2.4040   -22.5890 c6         1 A1A       0.137100
     14 C11         10.9370     0.2700   -23.6630 c6         1 A1A       0.064000
     15 C16         17.2370     4.3350   -23.6670 c5         1 A1A       0.119000
     16 C18         17.2510     5.0350   -26.0400 c5         1 A1A       0.119000
     17 C19         17.6710     3.5420   -25.8920 cy         1 A1A      -0.105000
     18 C25         20.3700     2.1950   -28.8830 cx         1 A1A      -0.226700
     19 C27         19.7480     2.1160   -30.2700 cx         1 A1A      -0.094000
     20 C29         18.3170     1.6130   -30.4620 c3         1 A1A      -0.064600
     21 C32         17.3030     7.9400   -25.0840 cc         1 A1A      -0.309600
     22 C33         17.5870     9.2150   -24.6500 cd         1 A1A       0.331900
     23 C35         16.8570     9.6960   -26.6950 cc         1 A1A       0.414300
     24 C38         14.2070    -1.3110   -27.5110 c3         1 A1A       0.166600
     25 C39         15.4460    -2.2240   -27.7320 c6         1 A1A      -0.064700
     26 C40         16.7060    -1.3990   -28.1220 c6         1 A1A      -0.069400
     27 C41         17.9330    -2.3080   -28.3750 c6         1 A1A      -0.073400
     28 C42         17.6260    -3.3820   -29.4460 c6         1 A1A      -0.075400
     29 C43         16.3820    -4.2150   -29.0560 c6         1 A1A      -0.073400
     30 C44         15.1530    -3.3050   -28.8110 c6         1 A1A      -0.069400
     31 N06         12.1590    -0.5730   -23.4320 n          1 A1A      -0.407800
     32 N17         17.2510     5.4660   -24.6190 n          1 A1A      -0.404800
     33 N21         18.9590     3.0410   -27.4730 nj         1 A1A      -0.425800
     34 N34         17.3430    10.2220   -25.5770 nd         1 A1A      -0.638000
     35 O05         14.3890    -0.4590   -22.9020 o          1 A1A      -0.585100
     36 O09          9.5200    -1.4230   -22.5840 os         1 A1A      -0.437000
     37 O14         14.5860     3.7940   -25.1310 o          1 A1A      -0.590100
     38 O24         19.6150     0.6660   -27.1240 o          1 A1A      -0.595100
     39 O31         17.7450     6.9750   -22.9810 o          1 A1A      -0.595100
     40 O37         14.4590    -0.4320   -26.3980 os         1 A1A      -0.460000
     41 S36         16.6570     7.9660   -26.7100 ss         1 A1A      -0.003400
     42 H101         9.5450    -1.1050   -24.6370 h1         1 A1A       0.053450
     43 H102         8.7540     0.1680   -23.6790 h1         1 A1A       0.053450
     44 H121        15.8070     1.0170   -24.2480 hn         1 A1A       0.332500
     45 H151        17.3590     2.2090   -24.1680 hc         1 A1A       0.076700
     46 H201        19.8530     4.0930   -25.7900 h1         1 A1A       0.062200
     47 H202        19.5300     2.3640   -25.4240 h1         1 A1A       0.062200
     48 H221        16.8260     2.9520   -27.8940 h1         1 A1A       0.062200
     49 H222        17.3920     1.5590   -26.9100 h1         1 A1A       0.062200
     50 H262        20.5160     0.0980   -29.6790 hc         1 A1A       0.084700
     51 H283        19.4150     4.0700   -31.1640 hc         1 A1A       0.039533
     52 H282        21.1120     3.5670   -31.1620 hc         1 A1A       0.039533
     53 H281        19.9790     2.8390   -32.3100 hc         1 A1A       0.039533
     54 H011        12.9520     1.1940   -28.1150 hc         1 A1A       0.045367
     55 H013        12.7200     2.4250   -26.8720 hc         1 A1A       0.045367
     56 H012        14.3650     1.9920   -27.3870 hc         1 A1A       0.045367
     57 H021        12.4380    -0.0020   -26.0680 h1         1 A1A       0.039700
     58 H031        12.9740     1.8720   -24.4510 h1         1 A1A       0.087700
     59 H071        12.7340    -2.4710   -22.6490 h1         1 A1A       0.056700
     60 H072        12.0830    -1.3420   -21.4550 h1         1 A1A       0.056700
     61 H082        10.5160    -2.9900   -23.5180 h1         1 A1A       0.053450
     62 H081        10.4300    -3.0930   -21.7440 h1         1 A1A       0.053450
     63 H111        11.0220     0.8260   -24.6050 h1         1 A1A       0.056700
     64 H112        10.8730     1.0150   -22.8570 h1         1 A1A       0.056700
     65 H162        16.4790     4.4600   -22.8820 h1         1 A1A       0.071200
     66 H161        18.2170     4.2310   -23.1820 h1         1 A1A       0.071200
     67 H181        17.9760     5.6010   -26.6390 h1         1 A1A       0.065200
     68 H182        16.2590     5.1630   -26.4930 h1         1 A1A       0.065200
     69 H251        21.0900     2.9900   -28.7040 hc         1 A1A       0.092700
     70 H293        17.5910     2.4180   -30.2920 hc         1 A1A       0.039533
     71 H291        18.1670     1.2340   -31.4800 hc         1 A1A       0.039533
     72 H292        18.0780     0.7970   -29.7720 hc         1 A1A       0.039533
     73 H331        17.9720     9.4830   -23.6730 h4         1 A1A       0.061100
     74 H351        16.5820    10.2660   -27.5740 h5         1 A1A       0.053100
     75 H382        13.3310    -1.9400   -27.3060 h1         1 A1A       0.022700
     76 H381        14.0210    -0.7480   -28.4340 h1         1 A1A       0.022700
     77 H391        15.6340    -2.7300   -26.7750 hc         1 A1A       0.060700
     78 H401        16.4930    -0.8080   -29.0230 hc         1 A1A       0.040700
     79 H402        16.9470    -0.6820   -27.3270 hc         1 A1A       0.040700
     80 H411        18.7880    -1.6970   -28.6960 hc         1 A1A       0.040700
     81 H412        18.2330    -2.7950   -27.4370 hc         1 A1A       0.040700
     82 H421        17.4580    -2.8980   -30.4180 hc         1 A1A       0.038700
     83 H422        18.4940    -4.0430   -29.5720 hc         1 A1A       0.038700
     84 H431        16.1560    -4.9410   -29.8490 hc         1 A1A       0.040700
     85 H432        16.5960    -4.7990   -28.1500 hc         1 A1A       0.040700
     86 H441        14.8620    -2.8210   -29.7540 hc         1 A1A       0.040700
     87 H442        14.2970    -3.9210   -28.5010 hc         1 A1A       0.040700
     88 C23         19.5810     1.7700   -27.6570 c          1 A1A       0.648100
     89 C30         17.4560     6.7890   -24.1550 c          1 A1A       0.658700
     90 H261        21.8040     1.2290   -30.3090 hc         1 A1A       0.084700
     91 C28         20.0830     3.2080   -31.2830 c3         1 A1A      -0.064600
@<TRIPOS>BOND
     1     1    14 1   
     2     1    36 1   
     3     1    42 1   
     4     1    43 1   
     5     2     3 1   
     6     2    10 1   
     7     2    44 1   
     8     3     4 1   
     9     3    37 2   
    10     4    15 1   
    11     4    17 1   
    12     4    45 1   
    13     5    17 1   
    14     5    33 1   
    15     5    46 1   
    16     5    47 1   
    17     6    17 1   
    18     6    33 1   
    19     6    48 1   
    20     6    49 1   
    21     7    18 1   
    22     7    19 1   
    23     7    50 1   
    24     7    90 1   
    25     8     9 1   
    26     8    54 1   
    27     8    55 1   
    28     8    56 1   
    29     9    10 1   
    30     9    40 1   
    31     9    57 1   
    32    10    11 1   
    33    10    58 1   
    34    11    31 1   
    35    11    35 2   
    36    12    13 1   
    37    12    31 1   
    38    12    59 1   
    39    12    60 1   
    40    13    36 1   
    41    13    61 1   
    42    13    62 1   
    43    14    31 1   
    44    14    63 1   
    45    14    64 1   
    46    15    32 1   
    47    15    65 1   
    48    15    66 1   
    49    16    17 1   
    50    16    32 1   
    51    16    67 1   
    52    16    68 1   
    53    18    19 1   
    54    18    69 1   
    55    18    88 1   
    56    19    20 1   
    57    19    91 1   
    58    20    70 1   
    59    20    71 1   
    60    20    72 1   
    61    21    22 2   
    62    21    41 1   
    63    21    89 1   
    64    22    34 1   
    65    22    73 1   
    66    23    34 2   
    67    23    41 1   
    68    23    74 1   
    69    24    25 1   
    70    24    40 1   
    71    24    75 1   
    72    24    76 1   
    73    25    26 1   
    74    25    30 1   
    75    25    77 1   
    76    26    27 1   
    77    26    78 1   
    78    26    79 1   
    79    27    28 1   
    80    27    80 1   
    81    27    81 1   
    82    28    29 1   
    83    28    82 1   
    84    28    83 1   
    85    29    30 1   
    86    29    84 1   
    87    29    85 1   
    88    30    86 1   
    89    30    87 1   
    90    32    89 1   
    91    33    88 1   
    92    38    88 2   
    93    39    89 2   
    94    51    91 1   
    95    52    91 1   
    96    53    91 1   
@<TRIPOS>SUBSTRUCTURE
     1 A1A         1 TEMP              0 ****  ****    0 ROOT
