@<TRIPOS>MOLECULE
A1A
   35    38     1     0     0
SMALL
No Charge or Current Charge


@<TRIPOS>ATOM
      1 C1          -1.5510    -4.6690   -21.3930 c3         1 A1A       0.072900
      2 C3          -2.1380    -2.2190   -21.7870 cc         1 A1A      -0.148000
      3 C4          -2.7580    -1.2840   -21.0010 cd         1 A1A      -0.153000
      4 C5          -3.1790    -1.9780   -19.8300 cd         1 A1A       0.323500
      5 C7          -3.9980    -1.4610   -18.7180 ca         1 A1A      -0.135500
      6 C8          -3.6630    -1.7660   -17.3810 ca         1 A1A      -0.061000
      7 C12         -5.9850    -0.2770   -17.9250 ca         1 A1A      -0.159000
      8 C15         -3.1080     1.1350   -20.3890 ca         1 A1A      -0.187000
      9 C16         -3.3060     2.4760   -20.7720 ca         1 A1A       0.356900
     10 C18         -3.3210     1.9140   -22.9970 ca         1 A1A       0.367500
     11 C21         -3.3170     0.7760   -25.0120 cc         1 A1A      -0.156100
     12 C23         -3.1300     0.5800   -22.6990 ca         1 A1A      -0.134800
     13 N2          -2.1430    -3.3770   -21.0210 na         1 A1A       0.138800
     14 N6          -2.7820    -3.2380   -19.8130 nc         1 A1A      -0.518800
     15 C9          -4.4700    -1.3060   -16.3240 ca         1 A1A      -0.159000
     16 C10         -5.6240    -0.5590   -16.6000 ca         1 A1A       0.174000
     17 F11         -6.3990    -0.1210   -15.5840 f          1 A1A      -0.180000
     18 C13         -5.1800    -0.7360   -18.9830 ca         1 A1A      -0.061000
     19 C14         -3.0140     0.1260   -21.3700 ca         1 A1A       0.088000
     20 N17         -3.4130     2.8740   -22.0630 nb         1 A1A      -0.684000
     21 N19         -3.4130     2.0290   -24.3710 na         1 A1A      -0.328400
     22 C22         -3.1490    -0.1150   -23.9690 cd         1 A1A      -0.235200
     23 H1          -0.7920    -4.9510   -20.6550 h1         1 A1A       0.058367
     24 H2          -2.3350    -5.4360   -21.4220 h1         1 A1A       0.058367
     25 H3          -1.0840    -4.5930   -22.3820 h1         1 A1A       0.058367
     26 H4          -1.6610    -2.1600   -22.7560 h4         1 A1A       0.160000
     27 H5          -2.7720    -2.3500   -17.1610 ha         1 A1A       0.127000
     28 H6          -6.8890     0.2900   -18.1310 ha         1 A1A       0.131500
     29 H7          -2.9920     0.9060   -19.3350 ha         1 A1A       0.129000
     30 H8          -3.3700     3.2610   -20.0180 h4         1 A1A       0.019100
     31 H9          -3.3910     0.6330   -26.0890 h4         1 A1A       0.214000
     32 H10         -4.2030    -1.5320   -15.2950 ha         1 A1A       0.131500
     33 H11         -5.4770    -0.5290   -20.0100 ha         1 A1A       0.127000
     34 H12         -3.5480     2.9170   -24.8380 hn         1 A1A       0.360000
     35 H13         -3.0910    -1.1910   -24.1090 ha         1 A1A       0.205000
@<TRIPOS>BOND
     1     1    13 1   
     2     1    23 1   
     3     1    24 1   
     4     1    25 1   
     5     2     3 2   
     6     2    13 1   
     7     2    26 1   
     8     3     4 1   
     9     3    19 1   
    10     4     5 1   
    11     4    14 2   
    12     5     6 ar  
    13     5    18 ar  
    14     6    15 ar  
    15     6    27 1   
    16     7    16 ar  
    17     7    18 ar  
    18     7    28 1   
    19     8     9 ar  
    20     8    19 ar  
    21     8    29 1   
    22     9    20 ar  
    23     9    30 1   
    24    10    12 ar  
    25    10    20 ar  
    26    10    21 1   
    27    11    21 1   
    28    11    22 2   
    29    11    31 1   
    30    12    19 ar  
    31    12    22 1   
    32    13    14 1   
    33    15    16 ar  
    34    15    32 1   
    35    16    17 1   
    36    18    33 1   
    37    21    34 1   
    38    22    35 1   
@<TRIPOS>SUBSTRUCTURE
     1 A1A         1 TEMP              0 ****  ****    0 ROOT
