@<TRIPOS>MOLECULE
A1A
   34    37     1     0     0
SMALL
No Charge or Current Charge


@<TRIPOS>ATOM
      1 C1         -16.8910    36.7290    19.0300 c3         1 A1A       0.067900
      2 C10        -21.0450    42.7950    17.4760 ca         1 A1A       0.115000
      3 C12        -20.6180    42.3330    18.7370 ca         1 A1A       0.300900
      4 C14        -16.1190    40.8920    16.3730 ca         1 A1A       0.087000
      5 C15        -15.3340    40.4680    15.2820 ca         1 A1A      -0.199000
      6 C16        -14.8400    41.4150    14.3620 ca         1 A1A       0.355900
      7 C18        -15.7800    43.1510    15.5340 ca         1 A1A       0.365500
      8 C20        -16.7840    44.4540    17.1630 cc         1 A1A      -0.159100
      9 C21        -16.8850    43.1170    17.5000 cd         1 A1A      -0.226200
     10 C22        -16.2930    42.2850    16.4760 ca         1 A1A      -0.128800
     11 C3         -16.1320    38.6770    17.5710 cc         1 A1A      -0.157000
     12 C4         -16.6790    39.9070    17.3190 cd         1 A1A      -0.148000
     13 C5         -17.9630    39.9010    17.9430 cd         1 A1A       0.211000
     14 C7         -19.0420    40.9080    17.7750 ca         1 A1A       0.311000
     15 C8         -19.4280    41.3150    16.4780 ca         1 A1A      -0.108000
     16 C9         -20.4430    42.2770    16.3200 ca         1 A1A      -0.119000
     17 N13        -19.6380    41.4080    18.8960 nb         1 A1A      -0.629000
     18 N17        -15.0610    42.7470    14.4730 nb         1 A1A      -0.683000
     19 N19        -16.1030    44.4370    15.9270 na         1 A1A      -0.328400
     20 N2         -17.0360    38.0590    18.4220 na         1 A1A       0.139800
     21 N6         -18.1760    38.7940    18.6430 nc         1 A1A      -0.481800
     22 H1         -17.6130    36.0400    18.5770 h1         1 A1A       0.060700
     23 H2         -15.8750    36.3530    18.8610 h1         1 A1A       0.060700
     24 H3         -17.0770    36.7960    20.1090 h1         1 A1A       0.060700
     25 H4         -21.0740    42.7180    19.6490 h4         1 A1A       0.036100
     26 H5         -15.1300    39.4150    15.1180 ha         1 A1A       0.120000
     27 H6         -14.2500    41.0940    13.5040 h4         1 A1A       0.017100
     28 H7         -17.0950    45.3610    17.6780 h4         1 A1A       0.216000
     29 H8         -17.2960    42.7670    18.4440 ha         1 A1A       0.217000
     30 H9         -15.2070    38.2150    17.2500 h4         1 A1A       0.159000
     31 H10        -18.9380    40.8890    15.6060 ha         1 A1A       0.137000
     32 H11        -20.7520    42.6100    15.3330 ha         1 A1A       0.137000
     33 H12        -15.8480    45.2550    15.3880 hn         1 A1A       0.360000
     34 F11        -22.0260    43.7210    17.3740 f          1 A1A      -0.171000
@<TRIPOS>BOND
     1     1    20 1   
     2     1    22 1   
     3     1    23 1   
     4     1    24 1   
     5     2     3 ar  
     6     2    16 ar  
     7     2    34 1   
     8     3    17 ar  
     9     3    25 1   
    10     4     5 ar  
    11     4    10 ar  
    12     4    12 1   
    13     5     6 ar  
    14     5    26 1   
    15     6    18 ar  
    16     6    27 1   
    17     7    10 ar  
    18     7    18 ar  
    19     7    19 1   
    20     8     9 2   
    21     8    19 1   
    22     8    28 1   
    23     9    10 1   
    24     9    29 1   
    25    11    12 2   
    26    11    20 1   
    27    11    30 1   
    28    12    13 1   
    29    13    14 1   
    30    13    21 2   
    31    14    15 ar  
    32    14    17 ar  
    33    15    16 ar  
    34    15    31 1   
    35    16    32 1   
    36    19    33 1   
    37    20    21 1   
@<TRIPOS>SUBSTRUCTURE
     1 A1A         1 TEMP              0 ****  ****    0 ROOT
