@<TRIPOS>MOLECULE
A1A
   40    43     1     0     0
SMALL
abcg2


@<TRIPOS>ATOM
      1 CAB        143.8540   146.1660   131.0410 cc         1 A1A       0.565500
      2 CAD        145.3400   147.6240   132.2900 c          1 A1A       0.578600
      3 CAE        146.3420   147.2650   131.2960 ca         1 A1A      -0.203600
      4 CAF        147.6300   147.8050   131.3590 ca         1 A1A      -0.040000
      5 CAG        148.5710   147.4460   130.4190 ca         1 A1A      -0.135000
      6 CAH        148.2370   146.5360   129.4100 ca         1 A1A      -0.075000
      7 CAI        146.9720   145.9950   129.3410 ca         1 A1A      -0.105000
      8 CAJ        146.0040   146.3570   130.2860 ca         1 A1A       0.188400
      9 CAL        143.0750   147.3100   133.0550 ca         1 A1A       0.025600
     10 CAM        142.7390   146.3400   133.9850 ca         1 A1A      -0.088500
     11 CAN        141.0720   147.8200   134.9300 ca         1 A1A      -0.065300
     12 CAO        142.4370   148.5400   133.0650 ca         1 A1A      -0.088500
     13 CAP        141.7380   146.5970   134.9110 ca         1 A1A      -0.106000
     14 CAQ        141.4430   148.7870   133.9970 ca         1 A1A      -0.106000
     15 CAR        139.9660   148.0810   135.9100 c3         1 A1A      -0.048800
     16 CAS        142.5020   145.5730   130.9050 ca         1 A1A      -0.141900
     17 CAT        141.3720   146.3590   130.6990 ca         1 A1A      -0.070000
     18 CAU        140.1330   145.7600   130.5310 ca         1 A1A      -0.116000
     19 CAV        140.0120   144.3760   130.5780 ca         1 A1A      -0.092000
     20 CAW        141.1390   143.5910   130.7760 ca         1 A1A      -0.116000
     21 CAX        142.3830   144.1860   130.9280 ca         1 A1A      -0.070000
     22 NAA        144.7460   145.8170   130.1860 nd         1 A1A      -0.626100
     23 NAC        144.0890   147.0400   132.0800 n          1 A1A      -0.258500
     24 OAK        145.5360   148.3520   133.2410 o          1 A1A      -0.517000
     25 H1         147.8800   148.5060   132.1440 ha         1 A1A       0.135000
     26 H2         149.5670   147.8660   130.4600 ha         1 A1A       0.119000
     27 H3         148.9800   146.2560   128.6740 ha         1 A1A       0.117000
     28 H4         146.7060   145.2930   128.5620 ha         1 A1A       0.133000
     29 H5         143.2500   145.3860   133.9830 ha         1 A1A       0.123500
     30 H6         142.7020   149.2960   132.3370 ha         1 A1A       0.123500
     31 H7         141.4770   145.8320   135.6320 ha         1 A1A       0.116000
     32 H8         140.9450   149.7490   133.9960 ha         1 A1A       0.116000
     33 H9         138.9990   147.8100   135.4810 hc         1 A1A       0.044367
     34 H10        140.0920   147.4970   136.8210 hc         1 A1A       0.044367
     35 H11        139.9140   149.1340   136.1840 hc         1 A1A       0.044367
     36 H12        141.4560   147.4370   130.6540 ha         1 A1A       0.123000
     37 H13        139.2590   146.3750   130.3610 ha         1 A1A       0.117000
     38 H14        139.0420   143.9130   130.4560 ha         1 A1A       0.115000
     39 H15        141.0530   142.5130   130.8100 ha         1 A1A       0.117000
     40 H16        143.2630   143.5740   131.0780 ha         1 A1A       0.123000
@<TRIPOS>BOND
     1     1    16 1   
     2     1    22 2   
     3     1    23 1   
     4     2     3 1   
     5     2    23 1   
     6     2    24 2   
     7     3     4 ar  
     8     3     8 ar  
     9     4     5 ar  
    10     4    25 1   
    11     5     6 ar  
    12     5    26 1   
    13     6     7 ar  
    14     6    27 1   
    15     7     8 ar  
    16     7    28 1   
    17     8    22 1   
    18     9    10 ar  
    19     9    12 ar  
    20     9    23 1   
    21    10    13 ar  
    22    10    29 1   
    23    11    13 ar  
    24    11    14 ar  
    25    11    15 1   
    26    12    14 ar  
    27    12    30 1   
    28    13    31 1   
    29    14    32 1   
    30    15    33 1   
    31    15    34 1   
    32    15    35 1   
    33    16    17 ar  
    34    16    21 ar  
    35    17    18 ar  
    36    17    36 1   
    37    18    19 ar  
    38    18    37 1   
    39    19    20 ar  
    40    19    38 1   
    41    20    21 ar  
    42    20    39 1   
    43    21    40 1   
@<TRIPOS>SUBSTRUCTURE
     1 A1A         1 TEMP              0 ****  ****    0 ROOT
