@<TRIPOS>MOLECULE
A1A
   37    37     1     0     0
SMALL
No Charge or Current Charge


@<TRIPOS>ATOM
      1 N1         -59.1070    20.7260     3.0590 n3         1 A1A      -0.740100
      2 C4         -58.7490    21.8790     2.1930 c3         1 A1A       0.197300
      3 O3         -52.5930    17.3230     2.5940 o          1 A1A      -0.704033
      4 S1         -52.3020    18.7000     2.1720 s6         1 A1A       1.324100
      5 O1         -51.2560    19.3690     2.9590 o          1 A1A      -0.704033
      6 O2         -52.1780    18.8820     0.7190 o          1 A1A      -0.704033
      7 C1         -53.7930    19.6100     2.5980 c3         1 A1A      -0.375400
      8 C2         -55.0190    19.0430     1.8650 c3         1 A1A       0.220800
      9 N2         -56.2790    19.7760     2.1480 n3         1 A1A      -0.740100
     10 C5         -56.7950    19.5600     3.5350 c3         1 A1A       0.171800
     11 C3         -58.0330    20.3790     4.0320 c3         1 A1A       0.171800
     12 C8         -56.2820    21.1790     1.6750 c3         1 A1A       0.197300
     13 C19        -57.6530    21.6370     1.1350 c3         1 A1A      -0.112400
     14 C7         -59.6810    19.5460     2.3620 c3         1 A1A       0.220800
     15 C6         -60.9820    19.8670     1.6160 c3         1 A1A      -0.375400
     16 S2         -61.7100    18.3860     0.9020 s6         1 A1A       1.324100
     17 O5         -60.6750    17.8860    -0.0130 o          1 A1A      -0.704033
     18 O6         -62.9200    18.8890     0.2340 o          1 A1A      -0.704033
     19 O4         -61.9720    17.5220     2.0620 o          1 A1A      -0.704033
     20 H2         -58.4200    22.7130     2.8280 h1         1 A1A       0.022200
     21 H3         -59.6450    22.2410     1.6720 h1         1 A1A       0.022200
     22 H4         -53.9060    19.5290     3.6830 h1         1 A1A       0.062950
     23 H5         -53.6150    20.6530     2.3190 h1         1 A1A       0.062950
     24 H6         -54.8270    19.0640     0.7820 h1         1 A1A       0.053950
     25 H7         -55.1430    17.9850     2.1380 h1         1 A1A       0.053950
     26 H9         -57.0530    18.4970     3.6340 h1         1 A1A       0.026200
     27 H10        -55.9950    19.7440     4.2640 h1         1 A1A       0.026200
     28 H11        -57.6510    21.3090     4.4760 h1         1 A1A       0.026200
     29 H12        -58.4770    19.8170     4.8650 h1         1 A1A       0.026200
     30 H13        -55.5710    21.2830     0.8450 h1         1 A1A       0.022200
     31 H14        -55.9450    21.8600     2.4690 h1         1 A1A       0.022200
     32 H15        -57.5030    22.5770     0.5920 hc         1 A1A       0.038700
     33 H16        -58.0100    20.9130     0.3920 hc         1 A1A       0.038700
     34 H17        -59.8920    18.7610     3.1030 h1         1 A1A       0.053950
     35 H18        -58.9520    19.1250     1.6550 h1         1 A1A       0.053950
     36 H19        -60.8010    20.5550     0.7850 h1         1 A1A       0.062950
     37 H20        -61.7250    20.2900     2.2980 h1         1 A1A       0.062950
@<TRIPOS>BOND
     1     1     2 1   
     2     1    11 1   
     3     1    14 1   
     4     2    13 1   
     5     2    20 1   
     6     2    21 1   
     7     3     4 1   
     8     4     5 1   
     9     4     6 1   
    10     4     7 1   
    11     7     8 1   
    12     7    22 1   
    13     7    23 1   
    14     8     9 1   
    15     8    24 1   
    16     8    25 1   
    17     9    10 1   
    18     9    12 1   
    19    10    11 1   
    20    10    26 1   
    21    10    27 1   
    22    11    28 1   
    23    11    29 1   
    24    12    13 1   
    25    12    30 1   
    26    12    31 1   
    27    13    32 1   
    28    13    33 1   
    29    14    15 1   
    30    14    34 1   
    31    14    35 1   
    32    15    16 1   
    33    15    36 1   
    34    15    37 1   
    35    16    17 1   
    36    16    18 1   
    37    16    19 1   
@<TRIPOS>SUBSTRUCTURE
     1 A1A         1 TEMP              0 ****  ****    0 ROOT
