@<TRIPOS>MOLECULE
A1A
   65    69     1     0     0
SMALL
abcg2


@<TRIPOS>ATOM
      1 N1         -11.1310    -2.2390   -17.6250 n          1 A1A      -0.389800
      2 N3         -10.8170    -7.5010   -13.1720 ns         1 A1A      -0.514900
      3 C4         -12.2540    -0.2160   -18.0050 cx         1 A1A      -0.125700
      4 C5         -11.8870    -1.5270   -18.6510 c5         1 A1A       0.137000
      5 C6         -11.2240    -1.6360   -16.3110 c5         1 A1A       0.055700
      6 C7         -11.8450    -0.2780   -16.5620 cx         1 A1A      -0.133700
      7 C8         -12.1480    -2.4470   -15.4050 c          1 A1A       0.602100
      8 C10        -11.7390    -4.1460   -12.3590 c3         1 A1A      -0.069400
      9 C13        -11.8110    -7.4160   -14.2210 c5         1 A1A       0.100000
     10 C15        -12.9760    -1.9490   -12.0580 c3         1 A1A       0.149600
     11 C17        -10.4130    -3.9670   -19.1670 cx         1 A1A      -0.162700
     12 C20         -9.3890    -3.2400   -19.9840 ca         1 A1A      -0.049300
     13 C21         -8.0880    -3.1340   -19.4880 ca         1 A1A      -0.103000
     14 C22         -7.1060    -2.4680   -20.2050 ca         1 A1A      -0.111000
     15 C24         -8.6960    -1.9980   -21.9380 ca         1 A1A      -0.111000
     16 C2         -11.1590     0.6790   -17.4970 cx         1 A1A      -0.076000
     17 C3         -11.5410     2.1310   -17.3140 c3         1 A1A      -0.065600
     18 N2         -11.8050    -2.4260   -14.1080 ns         1 A1A      -0.504900
     19 C9         -12.5550    -3.0440   -13.0350 c3         1 A1A       0.106700
     20 C11        -11.3090    -5.2450   -13.3150 c5         1 A1A      -0.155700
     21 C12        -12.4410    -6.0480   -13.9570 c5         1 A1A      -0.091400
     22 C14        -10.4650    -6.3180   -12.6400 c          1 A1A       0.564000
     23 O1          -9.6150    -6.1390   -11.7830 o          1 A1A      -0.564000
     24 O3         -13.1350    -3.0030   -15.8560 o          1 A1A      -0.600100
     25 C16        -10.5310    -3.4340   -17.7610 c          1 A1A       0.645100
     26 C18        -10.5390    -5.4520   -19.3370 cx         1 A1A      -0.102900
     27 C19        -11.6440    -4.5560   -19.7940 cx         1 A1A      -0.102900
     28 C23         -7.4070    -1.8970   -21.4360 ca         1 A1A      -0.108000
     29 C25         -9.6800    -2.6610   -21.2150 ca         1 A1A      -0.103000
     30 O4         -10.0660    -4.0290   -16.7960 o          1 A1A      -0.610100
     31 HN3        -10.3130    -8.3500   -12.9670 hn         1 A1A       0.323500
     32 HC4        -13.1960     0.2310   -18.3010 hc         1 A1A       0.099700
     33 H5_1       -12.7910    -2.0760   -18.9270 h1         1 A1A       0.059700
     34 H5_2       -11.2910    -1.3940   -19.5540 h1         1 A1A       0.059700
     35 HC6        -10.2260    -1.5560   -15.8670 h1         1 A1A       0.081700
     36 HC7        -12.4730     0.1320   -15.7780 hc         1 A1A       0.099700
     37 H102       -12.3390    -4.5800   -11.5560 hc         1 A1A       0.064700
     38 H101       -10.8570    -3.7010   -11.8890 hc         1 A1A       0.064700
     39 H131       -12.5280    -8.2330   -14.1500 h1         1 A1A       0.043200
     40 H132       -11.3470    -7.4610   -15.2110 h1         1 A1A       0.043200
     41 HC15       -12.0750    -1.4520   -11.6730 h1         1 A1A       0.021200
     42 H1         -13.5480    -1.1940   -12.6120 h1         1 A1A       0.021200
     43 HC21        -7.8390    -3.5830   -18.5340 ha         1 A1A       0.119500
     44 HC22        -6.1030    -2.3970   -19.8030 ha         1 A1A       0.114000
     45 HC24        -8.9420    -1.5540   -22.8950 ha         1 A1A       0.114000
     46 H1_2        -9.0540     0.9450   -17.1740 hc         1 A1A       0.041700
     47 H1_1        -9.4180    -0.5370   -18.0460 hc         1 A1A       0.041700
     48 H1_3        -9.5370     1.0130   -18.8640 hc         1 A1A       0.041700
     49 H3_3       -10.9280     2.5980   -16.5400 hc         1 A1A       0.041700
     50 H3_2       -11.3930     2.6910   -18.2390 hc         1 A1A       0.041700
     51 H3_1       -12.5860     2.2440   -17.0220 hc         1 A1A       0.041700
     52 HN2        -10.9390    -1.9730   -13.8540 hn         1 A1A       0.313500
     53 HC9        -13.4540    -3.4760   -13.4790 h1         1 A1A       0.091700
     54 HC11       -10.6770    -4.8180   -14.1050 hc         1 A1A       0.092700
     55 H122       -12.8320    -5.5920   -14.8640 hc         1 A1A       0.064200
     56 H121       -13.2670    -6.1510   -13.2490 hc         1 A1A       0.064200
     57 HO2        -13.9470    -1.8390   -10.3850 ho         1 A1A       0.447000
     58 H182       -10.6920    -6.0550   -18.4500 hc         1 A1A       0.082200
     59 H181        -9.9140    -5.9140   -20.0900 hc         1 A1A       0.082200
     60 H191       -12.5580    -4.5420   -19.2120 hc         1 A1A       0.082200
     61 H192       -11.7980    -4.4220   -20.8570 hc         1 A1A       0.082200
     62 HC23        -6.6410    -1.3780   -21.9970 ha         1 A1A       0.113000
     63 HC25       -10.6840    -2.7200   -21.6170 ha         1 A1A       0.119500
     64 C1          -9.7190     0.5020   -17.9170 c3         1 A1A      -0.065600
     65 O2         -13.7350    -2.5250   -11.0240 oh         1 A1A      -0.656000
@<TRIPOS>BOND
     1     1     4 1   
     2     1     5 1   
     3     1    25 1   
     4     2     9 1   
     5     2    22 1   
     6     2    31 1   
     7     3     4 1   
     8     3     6 1   
     9     3    16 1   
    10     3    32 1   
    11     4    33 1   
    12     4    34 1   
    13     5     6 1   
    14     5     7 1   
    15     5    35 1   
    16     6    16 1   
    17     6    36 1   
    18     7    18 1   
    19     7    24 2   
    20     8    19 1   
    21     8    20 1   
    22     8    37 1   
    23     8    38 1   
    24     9    21 1   
    25     9    39 1   
    26     9    40 1   
    27    10    19 1   
    28    10    41 1   
    29    10    42 1   
    30    10    65 1   
    31    11    12 1   
    32    11    25 1   
    33    11    26 1   
    34    11    27 1   
    35    12    13 ar  
    36    12    29 ar  
    37    13    14 ar  
    38    13    43 1   
    39    14    28 ar  
    40    14    44 1   
    41    15    28 ar  
    42    15    29 ar  
    43    15    45 1   
    44    16    17 1   
    45    16    64 1   
    46    17    49 1   
    47    17    50 1   
    48    17    51 1   
    49    18    19 1   
    50    18    52 1   
    51    19    53 1   
    52    20    21 1   
    53    20    22 1   
    54    20    54 1   
    55    21    55 1   
    56    21    56 1   
    57    22    23 2   
    58    25    30 2   
    59    26    27 1   
    60    26    58 1   
    61    26    59 1   
    62    27    60 1   
    63    27    61 1   
    64    28    62 1   
    65    29    63 1   
    66    46    64 1   
    67    47    64 1   
    68    48    64 1   
    69    57    65 1   
@<TRIPOS>SUBSTRUCTURE
     1 A1A         1 TEMP              0 ****  ****    0 ROOT
