@<TRIPOS>MOLECULE
A1A
   61    64     1     0     0
SMALL
No Charge or Current Charge


@<TRIPOS>ATOM
      1 C1         -16.5510    13.0980    -4.9150 c          1 A1A       0.637700
      2 C10        -19.9090     8.5620   -13.1980 c5         1 A1A      -0.086400
      3 C11        -18.6820     9.4570   -12.9330 c5         1 A1A       0.231800
      4 C12        -16.0570    12.3320    -8.6190 ca         1 A1A      -0.166500
      5 C13        -15.8170    12.7900    -7.3150 ca         1 A1A       0.183000
      6 C14        -16.0490    14.9870    -3.3370 c6         1 A1A       0.063000
      7 C15        -16.9760    15.4820    -5.6370 c6         1 A1A       0.067000
      8 C16        -16.4600    16.9320    -5.4540 c6         1 A1A       0.136600
      9 C17        -15.5770    16.4660    -3.2800 c6         1 A1A       0.195600
     10 C18        -15.5260    17.0070    -1.8460 ca         1 A1A      -0.085300
     11 C19        -14.2860    17.3140    -1.2500 ca         1 A1A      -0.089000
     12 C2         -16.7960    12.6240    -6.3130 ca         1 A1A      -0.178600
     13 C20        -14.2330    17.8030     0.0670 ca         1 A1A      -0.114500
     14 C21        -15.4190    17.9900     0.7970 ca         1 A1A      -0.103000
     15 C22        -16.6590    17.6880     0.2090 ca         1 A1A      -0.114500
     16 C23        -16.7130    17.1980    -1.1080 ca         1 A1A      -0.089000
     17 C3         -18.0060    11.9830    -6.6380 ca         1 A1A       0.183000
     18 C4         -18.2400    11.5300    -7.9450 ca         1 A1A      -0.166500
     19 C5         -17.2640    11.6980    -8.9350 ca         1 A1A       0.298400
     20 C6         -19.7280     9.0460   -10.8320 c5         1 A1A       0.239800
     21 C7         -20.7930     8.9720   -11.9910 c5         1 A1A       0.163500
     22 N1         -17.5000    11.2550   -10.2360 ne         1 A1A      -0.683900
     23 N2         -18.4090     9.1210   -11.5210 n3         1 A1A      -0.798500
     24 N3         -21.8030     7.8860   -11.7170 n3         1 A1A      -0.703600
     25 N4         -16.3480    14.4810    -4.7150 n          1 A1A      -0.401800
     26 O1         -16.4440    12.2990    -3.9930 o          1 A1A      -0.573100
     27 O3         -16.4550    17.2960    -4.0620 os         1 A1A      -0.445000
     28 S1         -17.0700     9.7890   -10.6820 s6         1 A1A       1.354500
     29 Cl1        -19.2820    11.7770    -5.4390 cl         1 A1A      -0.182500
     30 H1         -20.3770     8.7800   -14.1630 hc         1 A1A       0.069700
     31 H2         -19.6390     7.5000   -13.1790 hc         1 A1A       0.069700
     32 H3         -17.8510     9.1990   -13.6050 h1         1 A1A       0.065700
     33 H4         -18.9150    10.5240   -13.0650 h1         1 A1A       0.065700
     34 H5         -15.3000    12.4670    -9.3850 ha         1 A1A       0.142000
     35 H6         -16.9530    14.8760    -2.7230 h1         1 A1A       0.073700
     36 H7         -15.2710    14.3600    -2.8790 h1         1 A1A       0.073700
     37 H8         -18.0630    15.4730    -5.4700 h1         1 A1A       0.061200
     38 H9         -16.8120    15.1960    -6.6840 h1         1 A1A       0.061200
     39 H10        -15.4390    17.0180    -5.8550 h1         1 A1A       0.055200
     40 H11        -17.1020    17.6310    -6.0090 h1         1 A1A       0.055200
     41 H12        -14.5690    16.5270    -3.7170 h1         1 A1A       0.050700
     42 H13        -13.3610    17.1720    -1.8050 ha         1 A1A       0.117500
     43 H14        -13.2730    18.0370     0.5220 ha         1 A1A       0.112500
     44 H15        -15.3780    18.3690     1.8160 ha         1 A1A       0.112000
     45 H16        -17.5780    17.8330     0.7720 ha         1 A1A       0.112500
     46 H17        -17.6770    16.9700    -1.5570 ha         1 A1A       0.117500
     47 H18        -19.1840    11.0540    -8.1880 ha         1 A1A       0.142000
     48 H19        -19.9270     9.9280   -10.2080 h1         1 A1A       0.073200
     49 H20        -19.7630     8.1640   -10.1800 h1         1 A1A       0.073200
     50 H21        -21.2660     9.9500   -12.1570 h1         1 A1A       0.030700
     51 H22        -23.3990     6.7650   -12.5910 h1         1 A1A       0.035700
     52 H23        -23.2990     8.4560   -13.1340 h1         1 A1A       0.035700
     53 H24        -22.1430     7.2440   -13.7370 h1         1 A1A       0.035700
     54 H25        -21.9460     8.1800    -9.5940 h1         1 A1A       0.035700
     55 H26        -23.2050     8.9970   -10.5470 h1         1 A1A       0.035700
     56 H27        -23.2650     7.2370   -10.2990 h1         1 A1A       0.035700
     57 Cl2        -14.2570    13.5330    -6.9640 cl         1 A1A      -0.182500
     58 F1         -16.1130     9.9220   -12.0060 f          1 A1A      -0.291900
     59 O2         -16.4820     8.8460    -9.7260 o          1 A1A      -0.538000
     60 C8         -22.7060     7.5750   -12.8550 c3         1 A1A       0.145100
     61 C9         -22.5930     8.0880   -10.4750 c3         1 A1A       0.145100
@<TRIPOS>BOND
     1     1    12 1   
     2     1    25 1   
     3     1    26 2   
     4     2     3 1   
     5     2    21 1   
     6     2    30 1   
     7     2    31 1   
     8     3    23 1   
     9     3    32 1   
    10     3    33 1   
    11     4     5 ar  
    12     4    19 ar  
    13     4    34 1   
    14     5    12 ar  
    15     5    57 1   
    16     6     9 1   
    17     6    25 1   
    18     6    35 1   
    19     6    36 1   
    20     7     8 1   
    21     7    25 1   
    22     7    37 1   
    23     7    38 1   
    24     8    27 1   
    25     8    39 1   
    26     8    40 1   
    27     9    10 1   
    28     9    27 1   
    29     9    41 1   
    30    10    11 ar  
    31    10    16 ar  
    32    11    13 ar  
    33    11    42 1   
    34    12    17 ar  
    35    13    14 ar  
    36    13    43 1   
    37    14    15 ar  
    38    14    44 1   
    39    15    16 ar  
    40    15    45 1   
    41    16    46 1   
    42    17    18 ar  
    43    17    29 1   
    44    18    19 ar  
    45    18    47 1   
    46    19    22 1   
    47    20    21 1   
    48    20    23 1   
    49    20    48 1   
    50    20    49 1   
    51    21    24 1   
    52    21    50 1   
    53    22    28 2   
    54    23    28 1   
    55    24    60 1   
    56    24    61 1   
    57    28    58 1   
    58    28    59 2   
    59    51    60 1   
    60    52    60 1   
    61    53    60 1   
    62    54    61 1   
    63    55    61 1   
    64    56    61 1   
@<TRIPOS>SUBSTRUCTURE
     1 A1A         1 TEMP              0 ****  ****    0 ROOT
