@<TRIPOS>MOLECULE
A1A
   61    64     1     0     0
SMALL
abcg2


@<TRIPOS>ATOM
      1 C1         -35.6720   -52.9140   -23.3380 c          1 A1A       0.630700
      2 C10        -26.6720   -48.6680   -20.4280 c5         1 A1A      -0.091400
      3 C11        -27.2900   -48.9280   -21.7960 c5         1 A1A       0.231800
      4 C12        -33.1750   -50.7650   -21.4730 ca         1 A1A      -0.116000
      5 C13        -34.3090   -51.4890   -21.7860 ca         1 A1A      -0.052000
      6 C14        -36.8890   -55.0200   -23.4270 c6         1 A1A       0.062000
      7 C15        -34.6640   -55.0180   -22.4680 c6         1 A1A       0.068000
      8 C16        -34.3290   -56.2010   -23.3620 c6         1 A1A       0.137600
      9 C17        -36.4700   -56.1980   -24.3080 c6         1 A1A       0.196600
     10 C18        -37.6500   -57.0770   -24.6120 ca         1 A1A      -0.085300
     11 C19        -38.2880   -56.9800   -25.8440 ca         1 A1A      -0.089500
     12 C2         -34.4020   -52.2020   -22.9770 ca         1 A1A      -0.169600
     13 C20        -39.4070   -57.7540   -26.1250 ca         1 A1A      -0.114000
     14 C21        -39.8960   -58.6360   -25.1730 ca         1 A1A      -0.104000
     15 C22        -39.2640   -58.7390   -23.9400 ca         1 A1A      -0.114000
     16 C23        -38.1480   -57.9630   -23.6590 ca         1 A1A      -0.089500
     17 C3         -33.3300   -52.1350   -23.8530 ca         1 A1A       0.179000
     18 C4         -32.1850   -51.4110   -23.5670 ca         1 A1A      -0.200000
     19 C5         -32.0930   -50.7210   -22.3560 ca         1 A1A       0.277400
     20 C6         -28.9740   -49.1480   -20.0260 c5         1 A1A       0.234800
     21 C7         -27.8460   -48.2260   -19.5550 c5         1 A1A       0.169500
     22 F1         -29.1940   -51.6750   -22.1610 f          1 A1A      -0.294900
     23 N1         -31.0030   -49.9510   -21.9630 ne         1 A1A      -0.686900
     24 N2         -28.6790   -49.2850   -21.4540 n3         1 A1A      -0.799500
     25 N3         -27.6010   -48.3510   -18.1340 n3         1 A1A      -0.709600
     26 N4         -35.7220   -54.2330   -23.0790 n          1 A1A      -0.406800
     27 O1         -36.5960   -52.2840   -23.8280 o          1 A1A      -0.582100
     28 O2         -29.1370   -49.9390   -23.8130 o          1 A1A      -0.538000
     29 O3         -35.4750   -56.9650   -23.6650 os         1 A1A      -0.445000
     30 S1         -29.5870   -50.1190   -22.4510 s6         1 A1A       1.347500
     31 CL1        -33.4160   -52.9890   -25.3600 cl         1 A1A      -0.194000
     32 H2         -25.8770   -47.9280   -20.4970 hc         1 A1A       0.066200
     33 H3         -26.7780   -49.7300   -22.3260 h1         1 A1A       0.065700
     34 H4         -27.2840   -48.0380   -22.4240 h1         1 A1A       0.065700
     35 H5         -33.1140   -50.2260   -20.5370 ha         1 A1A       0.132000
     36 H6         -35.1340   -51.5150   -21.0840 ha         1 A1A       0.126000
     37 H7         -37.6090   -54.3990   -23.9540 h1         1 A1A       0.071700
     38 H8         -37.3670   -55.3890   -22.5120 h1         1 A1A       0.071700
     39 H9         -35.0020   -55.3710   -21.4890 h1         1 A1A       0.059700
     40 H10        -33.7730   -54.4150   -22.3100 h1         1 A1A       0.059700
     41 H11        -33.6260   -56.8600   -22.8520 h1         1 A1A       0.056200
     42 H12        -33.8500   -55.8400   -24.2820 h1         1 A1A       0.056200
     43 H13        -36.0730   -55.7860   -25.2490 h1         1 A1A       0.051700
     44 H14        -37.9040   -56.2980   -26.5940 ha         1 A1A       0.117500
     45 H15        -39.8900   -57.6700   -27.0900 ha         1 A1A       0.113000
     46 H16        -40.7660   -59.2440   -25.3900 ha         1 A1A       0.112000
     47 H17        -39.6410   -59.4260   -23.1940 ha         1 A1A       0.113000
     48 H18        -37.6660   -58.0520   -22.6940 ha         1 A1A       0.117500
     49 H19        -31.3880   -51.3760   -24.2970 ha         1 A1A       0.136000
     50 H20        -29.9660   -48.7250   -19.8880 h1         1 A1A       0.073700
     51 H21        -28.9160   -50.1110   -19.5090 h1         1 A1A       0.073700
     52 H22        -28.1160   -47.1890   -19.8230 h1         1 A1A       0.039700
     53 H23        -26.3360   -47.6440   -16.6360 h1         1 A1A       0.035533
     54 H24        -25.5590   -47.8520   -18.1970 h1         1 A1A       0.035533
     55 H25        -26.6230   -46.4620   -17.9220 h1         1 A1A       0.035533
     56 H26        -28.5600   -48.1330   -16.2940 h1         1 A1A       0.035533
     57 H27        -29.1440   -47.0020   -17.5240 h1         1 A1A       0.035533
     58 H28        -29.6000   -48.7120   -17.5830 h1         1 A1A       0.035533
     59 H1         -26.2480   -49.5890   -20.0200 hc         1 A1A       0.066200
     60 C8         -26.4810   -47.5330   -17.7110 c3         1 A1A       0.146600
     61 C9         -28.7820   -48.0280   -17.3560 c3         1 A1A       0.146600
@<TRIPOS>BOND
     1     1    12 1   
     2     1    26 1   
     3     1    27 2   
     4     2     3 1   
     5     2    21 1   
     6     2    32 1   
     7     2    59 1   
     8     3    24 1   
     9     3    33 1   
    10     3    34 1   
    11     4     5 ar  
    12     4    19 ar  
    13     4    35 1   
    14     5    12 ar  
    15     5    36 1   
    16     6     9 1   
    17     6    26 1   
    18     6    37 1   
    19     6    38 1   
    20     7     8 1   
    21     7    26 1   
    22     7    39 1   
    23     7    40 1   
    24     8    29 1   
    25     8    41 1   
    26     8    42 1   
    27     9    10 1   
    28     9    29 1   
    29     9    43 1   
    30    10    11 ar  
    31    10    16 ar  
    32    11    13 ar  
    33    11    44 1   
    34    12    17 ar  
    35    13    14 ar  
    36    13    45 1   
    37    14    15 ar  
    38    14    46 1   
    39    15    16 ar  
    40    15    47 1   
    41    16    48 1   
    42    17    18 ar  
    43    17    31 1   
    44    18    19 ar  
    45    18    49 1   
    46    19    23 1   
    47    20    21 1   
    48    20    24 1   
    49    20    50 1   
    50    20    51 1   
    51    21    25 1   
    52    21    52 1   
    53    22    30 1   
    54    23    30 2   
    55    24    30 1   
    56    25    60 1   
    57    25    61 1   
    58    28    30 2   
    59    53    60 1   
    60    54    60 1   
    61    55    60 1   
    62    56    61 1   
    63    57    61 1   
    64    58    61 1   
@<TRIPOS>SUBSTRUCTURE
     1 A1A         1 TEMP              0 ****  ****    0 ROOT
