@<TRIPOS>MOLECULE
A1A
   61    64     1     0     0
SMALL
abcg2


@<TRIPOS>ATOM
      1 C1         -16.4130    13.0000    -4.3680 c          1 A1A       0.637700
      2 C10        -19.4230     8.0540   -12.9750 c5         1 A1A      -0.086400
      3 C11        -18.1810     8.8580   -12.6320 c5         1 A1A       0.231800
      4 C12        -16.5560    11.9010    -8.0090 ca         1 A1A      -0.166500
      5 C13        -16.1860    12.5300    -6.8340 ca         1 A1A       0.183000
      6 C14        -16.3550    14.9360    -2.8940 c6         1 A1A       0.063000
      7 C15        -17.7300    15.0440    -4.8820 c6         1 A1A       0.067000
      8 C16        -17.0440    16.3520    -5.2350 c6         1 A1A       0.136600
      9 C17        -15.6990    16.2530    -3.3170 c6         1 A1A       0.195600
     10 C18        -15.2760    17.0470    -2.1140 ca         1 A1A      -0.085300
     11 C19        -13.9370    17.0920    -1.7410 ca         1 A1A      -0.089000
     12 C2         -16.9120    12.4110    -5.6580 ca         1 A1A      -0.178600
     13 C20        -13.5410    17.7930    -0.6090 ca         1 A1A      -0.114500
     14 C21        -14.4830    18.4610     0.1590 ca         1 A1A      -0.103000
     15 C22        -15.8230    18.4220    -0.2090 ca         1 A1A      -0.114500
     16 C23        -16.2180    17.7190    -1.3370 ca         1 A1A      -0.089000
     17 C3         -18.0470    11.6120    -5.7020 ca         1 A1A       0.183000
     18 C4         -18.4510    10.9690    -6.8520 ca         1 A1A      -0.166500
     19 C5         -17.7010    11.1000    -8.0240 ca         1 A1A       0.298400
     20 C6         -20.0360     9.4890   -11.1540 c5         1 A1A       0.239800
     21 C7         -20.5710     8.9330   -12.4800 c5         1 A1A       0.163500
     22 N1         -18.1760    10.3880    -9.1130 ne         1 A1A      -0.683900
     23 N2         -18.5840     9.4780   -11.3610 n3         1 A1A      -0.798500
     24 N3         -21.8230     8.2300   -12.3010 n3         1 A1A      -0.703600
     25 N4         -16.8380    14.2380    -4.0700 n          1 A1A      -0.401800
     26 O1         -15.6630    12.3410    -3.6680 o          1 A1A      -0.573100
     27 O3         -16.5950    17.0300    -4.0830 os         1 A1A      -0.445000
     28 S1         -17.5930    10.3700   -10.5060 s6         1 A1A       1.354500
     29 CL1        -18.9970    11.4420    -4.2670 cl         1 A1A      -0.182500
     30 H1         -19.4670     7.8410   -14.0410 hc         1 A1A       0.069700
     31 H2         -19.4260     7.1060   -12.4310 hc         1 A1A       0.069700
     32 H3         -17.3000     8.2340   -12.5020 h1         1 A1A       0.065700
     33 H4         -17.9730     9.6150   -13.3920 h1         1 A1A       0.065700
     34 H5         -15.9410    12.0340    -8.8880 ha         1 A1A       0.142000
     35 H6         -17.1950    15.1350    -2.2200 h1         1 A1A       0.073700
     36 H7         -15.6370    14.3160    -2.3620 h1         1 A1A       0.073700
     37 H8         -18.6460    15.2370    -4.3160 h1         1 A1A       0.061200
     38 H9         -18.0110    14.5200    -5.7930 h1         1 A1A       0.061200
     39 H10        -16.2080    16.1500    -5.9180 h1         1 A1A       0.055200
     40 H11        -17.7450    17.0120    -5.7470 h1         1 A1A       0.055200
     41 H12        -14.8120    16.0030    -3.9190 h1         1 A1A       0.050700
     42 H13        -13.1960    16.5780    -2.3420 ha         1 A1A       0.117500
     43 H14        -12.4940    17.8220    -0.3340 ha         1 A1A       0.112500
     44 H15        -14.1770    19.0120     1.0380 ha         1 A1A       0.112000
     45 H16        -16.5630    18.9430     0.3860 ha         1 A1A       0.112500
     46 H17        -17.2650    17.6970    -1.6120 ha         1 A1A       0.117500
     47 H18        -19.3430    10.3560    -6.8570 ha         1 A1A       0.142000
     48 H19        -20.4020    10.4920   -10.9410 h1         1 A1A       0.073200
     49 H20        -20.2990     8.8320   -10.3230 h1         1 A1A       0.073200
     50 H21        -20.6860     9.7760   -13.1870 h1         1 A1A       0.030700
     51 H22        -23.2280     7.1180   -13.3650 h1         1 A1A       0.035700
     52 H23        -22.4140     8.3410   -14.3510 h1         1 A1A       0.035700
     53 H24        -21.5680     6.8590   -13.8770 h1         1 A1A       0.035700
     54 H25        -22.5710     9.4950   -10.7940 h1         1 A1A       0.035700
     55 H26        -23.0620     9.9680   -12.4280 h1         1 A1A       0.035700
     56 H27        -23.7790     8.5500   -11.6470 h1         1 A1A       0.035700
     57 CL2        -14.7670    13.5210    -6.8380 cl         1 A1A      -0.182500
     58 F1         -17.7910    11.8730   -11.1080 f          1 A1A      -0.291900
     59 O2         -16.2170    10.0810   -10.8320 o          1 A1A      -0.538000
     60 C8         -22.2730     7.6160   -13.5350 c3         1 A1A       0.145100
     61 C9         -22.8510     9.1080   -11.7740 c3         1 A1A       0.145100
@<TRIPOS>BOND
     1     1    12 1   
     2     1    25 1   
     3     1    26 2   
     4     2     3 1   
     5     2    21 1   
     6     2    30 1   
     7     2    31 1   
     8     3    23 1   
     9     3    32 1   
    10     3    33 1   
    11     4     5 ar  
    12     4    19 ar  
    13     4    34 1   
    14     5    12 ar  
    15     5    57 1   
    16     6     9 1   
    17     6    25 1   
    18     6    35 1   
    19     6    36 1   
    20     7     8 1   
    21     7    25 1   
    22     7    37 1   
    23     7    38 1   
    24     8    27 1   
    25     8    39 1   
    26     8    40 1   
    27     9    10 1   
    28     9    27 1   
    29     9    41 1   
    30    10    11 ar  
    31    10    16 ar  
    32    11    13 ar  
    33    11    42 1   
    34    12    17 ar  
    35    13    14 ar  
    36    13    43 1   
    37    14    15 ar  
    38    14    44 1   
    39    15    16 ar  
    40    15    45 1   
    41    16    46 1   
    42    17    18 ar  
    43    17    29 1   
    44    18    19 ar  
    45    18    47 1   
    46    19    22 1   
    47    20    21 1   
    48    20    23 1   
    49    20    48 1   
    50    20    49 1   
    51    21    24 1   
    52    21    50 1   
    53    22    28 2   
    54    23    28 1   
    55    24    60 1   
    56    24    61 1   
    57    28    58 1   
    58    28    59 2   
    59    51    60 1   
    60    52    60 1   
    61    53    60 1   
    62    54    61 1   
    63    55    61 1   
    64    56    61 1   
@<TRIPOS>SUBSTRUCTURE
     1 A1A         1 TEMP              0 ****  ****    0 ROOT
