@<TRIPOS>MOLECULE
A1A
   35    38     1     0     0
SMALL
abcg2


@<TRIPOS>ATOM
      1 C1          -1.3790    -4.6190   -21.2620 c3         1 A1A       0.072900
      2 C3          -1.9560    -2.2260   -21.6750 cc         1 A1A      -0.148000
      3 C4          -2.6990    -1.2810   -20.9970 cd         1 A1A      -0.153000
      4 C5          -3.1690    -1.9740   -19.8550 cd         1 A1A       0.323500
      5 C7          -4.0550    -1.4890   -18.7910 ca         1 A1A      -0.135500
      6 C8          -3.8570    -1.8710   -17.4650 ca         1 A1A      -0.061000
      7 C12         -5.9800    -0.1940   -18.0990 ca         1 A1A      -0.159000
      8 C15         -2.7250     1.1510   -20.4440 ca         1 A1A      -0.187000
      9 C16         -2.9030     2.4810   -20.8260 ca         1 A1A       0.356900
     10 C18         -3.3700     1.8880   -22.9230 ca         1 A1A       0.367500
     11 C21         -3.7840     0.7920   -24.8140 cc         1 A1A      -0.156100
     12 C23         -3.2170     0.5040   -22.6690 ca         1 A1A      -0.134800
     13 N2          -1.9980    -3.3530   -20.9500 na         1 A1A       0.138800
     14 N6          -2.7320    -3.2230   -19.8530 nc         1 A1A      -0.518800
     15 C9          -4.7000    -1.4230   -16.4580 ca         1 A1A      -0.159000
     16 C10         -5.7450    -0.5850   -16.7950 ca         1 A1A       0.174000
     17 F11         -6.5620    -0.1370   -15.8290 f          1 A1A      -0.180000
     18 C13         -5.1310    -0.6540   -19.0920 ca         1 A1A      -0.061000
     19 C14         -2.8810     0.1210   -21.3660 ca         1 A1A       0.088000
     20 N17         -3.2250     2.8730   -22.0510 nb         1 A1A      -0.684000
     21 N19         -3.7100     2.0280   -24.2330 na         1 A1A      -0.328400
     22 C22         -3.4910    -0.1740   -23.8950 cd         1 A1A      -0.235200
     23 H1          -0.7470    -4.9390   -20.4370 h1         1 A1A       0.058367
     24 H2          -2.1370    -5.3770   -21.4490 h1         1 A1A       0.058367
     25 H3          -0.7680    -4.5030   -22.1530 h1         1 A1A       0.058367
     26 H4          -1.3860    -2.1560   -22.5880 h4         1 A1A       0.160000
     27 H5          -3.0270    -2.5180   -17.2100 ha         1 A1A       0.127000
     28 H6          -6.8150     0.4510   -18.3380 ha         1 A1A       0.131500
     29 H7          -2.4540     0.9320   -19.4200 ha         1 A1A       0.129000
     30 H8          -2.7720     3.2660   -20.0900 h4         1 A1A       0.019100
     31 H9          -4.0450     0.6930   -25.8550 h4         1 A1A       0.214000
     32 H10         -4.5390    -1.7170   -15.4290 ha         1 A1A       0.131500
     33 H11         -5.3230    -0.3660   -20.1170 ha         1 A1A       0.127000
     34 H12         -3.8870     2.9040   -24.6980 hn         1 A1A       0.360000
     35 H13         -3.4770    -1.2360   -24.0780 ha         1 A1A       0.205000
@<TRIPOS>BOND
     1     1    13 1   
     2     1    23 1   
     3     1    24 1   
     4     1    25 1   
     5     2     3 2   
     6     2    13 1   
     7     2    26 1   
     8     3     4 1   
     9     3    19 1   
    10     4     5 1   
    11     4    14 2   
    12     5     6 ar  
    13     5    18 ar  
    14     6    15 ar  
    15     6    27 1   
    16     7    16 ar  
    17     7    18 ar  
    18     7    28 1   
    19     8     9 ar  
    20     8    19 ar  
    21     8    29 1   
    22     9    20 ar  
    23     9    30 1   
    24    10    12 ar  
    25    10    20 ar  
    26    10    21 1   
    27    11    21 1   
    28    11    22 2   
    29    11    31 1   
    30    12    19 ar  
    31    12    22 1   
    32    13    14 1   
    33    15    16 ar  
    34    15    32 1   
    35    16    17 1   
    36    18    33 1   
    37    21    34 1   
    38    22    35 1   
@<TRIPOS>SUBSTRUCTURE
     1 A1A         1 TEMP              0 ****  ****    0 ROOT
