@<TRIPOS>MOLECULE
A1A
   65    69     1     0     0
SMALL
No Charge or Current Charge


@<TRIPOS>ATOM
      1 N1         -11.3790    -2.3170   -17.8220 n          1 A1A      -0.389800
      2 N3          -9.8580    -6.8830   -12.4170 ns         1 A1A      -0.514900
      3 C4         -12.0240    -0.0280   -17.8940 cx         1 A1A      -0.125700
      4 C5         -11.7550    -1.2500   -18.7810 c5         1 A1A       0.137000
      5 C6         -11.4280    -1.9040   -16.3880 c5         1 A1A       0.055700
      6 C7         -11.8160    -0.4120   -16.4530 cx         1 A1A      -0.133700
      7 C8         -12.4520    -2.7340   -15.5480 c          1 A1A       0.602100
      8 C10        -11.9420    -3.8950   -12.1570 c3         1 A1A      -0.069400
      9 C13        -10.4940    -7.0840   -13.7170 c5         1 A1A       0.100000
     10 C15        -13.8620    -2.1620   -12.3900 c3         1 A1A       0.149600
     11 C17        -10.8690    -3.9040   -19.6940 cx         1 A1A      -0.162700
     12 C20         -9.6690    -3.3280   -20.4060 ca         1 A1A      -0.049300
     13 C21         -8.3750    -3.7310   -20.0190 ca         1 A1A      -0.103000
     14 C22         -7.2420    -3.2030   -20.6610 ca         1 A1A      -0.111000
     15 C24         -8.6780    -1.8640   -22.0930 ca         1 A1A      -0.111000
     16 C2         -10.8410     0.5460   -17.1250 cx         1 A1A      -0.076000
     17 C3         -10.9010     2.0190   -16.7240 c3         1 A1A      -0.065600
     18 N2         -12.2070    -2.5240   -14.2050 ns         1 A1A      -0.504900
     19 C9         -12.9350    -3.1780   -13.1100 c3         1 A1A       0.106700
     20 C11        -10.9690    -4.8940   -12.8480 c5         1 A1A      -0.155700
     21 C12        -11.6510    -6.0520   -13.6290 c5         1 A1A      -0.091400
     22 C14        -10.0510    -5.6430   -11.8730 c          1 A1A       0.564000
     23 O1          -9.7220    -5.3530   -10.7340 o          1 A1A      -0.564000
     24 O3         -13.3620    -3.4420   -15.9630 o          1 A1A      -0.600100
     25 C16        -10.8850    -3.5840   -18.2000 c          1 A1A       0.645100
     26 C18        -11.3380    -5.2950   -20.0880 cx         1 A1A      -0.102900
     27 C19        -12.2110    -4.1050   -20.3850 cx         1 A1A      -0.102900
     28 C23         -7.3920    -2.2680   -21.6980 ca         1 A1A      -0.108000
     29 C25         -9.8110    -2.3930   -21.4520 ca         1 A1A      -0.103000
     30 O4         -10.4790    -4.3850   -17.3650 o          1 A1A      -0.610100
     31 HN3         -9.3430    -7.5780   -11.8890 hn         1 A1A       0.323500
     32 HC4        -12.8420     0.6430   -18.1470 hc         1 A1A       0.099700
     33 H5_1       -12.6480    -1.5400   -19.3500 h1         1 A1A       0.059700
     34 H5_2       -10.9520    -1.0520   -19.5000 h1         1 A1A       0.059700
     35 HC6        -10.4440    -2.0440   -15.9230 h1         1 A1A       0.081700
     36 HC7        -12.4870     0.0000   -15.7010 hc         1 A1A       0.099700
     37 H102       -12.5170    -4.4270   -11.3890 hc         1 A1A       0.064700
     38 H101       -11.3590    -3.1330   -11.6240 hc         1 A1A       0.064700
     39 H131       -10.8650    -8.1080   -13.8570 h1         1 A1A       0.043200
     40 H132        -9.8060    -6.8470   -14.5390 h1         1 A1A       0.043200
     41 HC15       -13.2470    -1.3880   -11.9120 h1         1 A1A       0.021200
     42 H1         -14.4930    -1.6660   -13.1410 h1         1 A1A       0.021200
     43 HC21        -8.2470    -4.4560   -19.2190 ha         1 A1A       0.119500
     44 HC22        -6.2470    -3.5190   -20.3540 ha         1 A1A       0.114000
     45 HC24        -8.7960    -1.1400   -22.8960 ha         1 A1A       0.114000
     46 H1_2        -8.7430     0.3390   -16.5640 hc         1 A1A       0.041700
     47 H1_1        -9.2420    -0.8800   -17.7290 hc         1 A1A       0.041700
     48 H1_3        -8.9920     0.7780   -18.2590 hc         1 A1A       0.041700
     49 H3_3       -10.2900     2.2100   -15.8340 hc         1 A1A       0.041700
     50 H3_2       -10.5320     2.6630   -17.5320 hc         1 A1A       0.041700
     51 H3_1       -11.9260     2.3340   -16.4950 hc         1 A1A       0.041700
     52 HN2        -11.4470    -1.8960   -13.9700 hn         1 A1A       0.313500
     53 HC9        -13.5870    -3.9500   -13.5410 h1         1 A1A       0.091700
     54 HC11       -10.3140    -4.3560   -13.5430 hc         1 A1A       0.092700
     55 H122       -12.0220    -5.7520   -14.6150 hc         1 A1A       0.064200
     56 H121       -12.4980    -6.4670   -13.0690 hc         1 A1A       0.064200
     57 HO2        -15.2510    -2.1180   -11.0040 ho         1 A1A       0.447000
     58 H182       -11.6610    -5.9740   -19.3020 hc         1 A1A       0.082200
     59 H181       -10.8420    -5.7790   -20.9270 hc         1 A1A       0.082200
     60 H191       -13.1150    -3.9860   -19.7920 hc         1 A1A       0.082200
     61 H192       -12.3160    -3.8160   -21.4270 hc         1 A1A       0.082200
     62 HC23        -6.5150    -1.8580   -22.1940 ha         1 A1A       0.113000
     63 HC25       -10.7980    -2.0640   -21.7670 ha         1 A1A       0.119500
     64 C1          -9.3820     0.1650   -17.4380 c3         1 A1A      -0.065600
     65 O2         -14.6900    -2.8130   -11.4140 oh         1 A1A      -0.656000
@<TRIPOS>BOND
     1     1     4 1   
     2     1     5 1   
     3     1    25 1   
     4     2     9 1   
     5     2    22 1   
     6     2    31 1   
     7     3     4 1   
     8     3     6 1   
     9     3    16 1   
    10     3    32 1   
    11     4    33 1   
    12     4    34 1   
    13     5     6 1   
    14     5     7 1   
    15     5    35 1   
    16     6    16 1   
    17     6    36 1   
    18     7    18 1   
    19     7    24 2   
    20     8    19 1   
    21     8    20 1   
    22     8    37 1   
    23     8    38 1   
    24     9    21 1   
    25     9    39 1   
    26     9    40 1   
    27    10    19 1   
    28    10    41 1   
    29    10    42 1   
    30    10    65 1   
    31    11    12 1   
    32    11    25 1   
    33    11    26 1   
    34    11    27 1   
    35    12    13 ar  
    36    12    29 ar  
    37    13    14 ar  
    38    13    43 1   
    39    14    28 ar  
    40    14    44 1   
    41    15    28 ar  
    42    15    29 ar  
    43    15    45 1   
    44    16    17 1   
    45    16    64 1   
    46    17    49 1   
    47    17    50 1   
    48    17    51 1   
    49    18    19 1   
    50    18    52 1   
    51    19    53 1   
    52    20    21 1   
    53    20    22 1   
    54    20    54 1   
    55    21    55 1   
    56    21    56 1   
    57    22    23 2   
    58    25    30 2   
    59    26    27 1   
    60    26    58 1   
    61    26    59 1   
    62    27    60 1   
    63    27    61 1   
    64    28    62 1   
    65    29    63 1   
    66    46    64 1   
    67    47    64 1   
    68    48    64 1   
    69    57    65 1   
@<TRIPOS>SUBSTRUCTURE
     1 A1A         1 TEMP              0 ****  ****    0 ROOT
