@<TRIPOS>MOLECULE
A1A
   61    64     1     0     0
SMALL
abcg2


@<TRIPOS>ATOM
      1 S1         -29.4440   -50.0940   -22.4150 s6         1 A1A       1.347500
      2 O1         -36.2460   -52.2880   -24.2950 o          1 A1A      -0.582100
      3 O2         -29.1230   -49.7880   -23.7890 o          1 A1A      -0.540000
      4 O3         -35.6980   -56.9660   -23.3550 os         1 A1A      -0.446000
      5 C1         -35.4940   -52.9180   -23.5680 c          1 A1A       0.631700
      6 C10        -26.9290   -47.8260   -20.5780 c5         1 A1A      -0.118400
      7 C11        -27.3150   -48.5920   -21.8310 c5         1 A1A       0.231800
      8 C12        -33.0990   -50.7610   -21.5860 ca         1 A1A      -0.121000
      9 C13        -34.2350   -51.4410   -21.9790 ca         1 A1A      -0.049000
     10 C14        -36.9250   -54.8910   -23.5610 c6         1 A1A       0.062000
     11 C15        -34.8750   -54.9550   -22.2800 c6         1 A1A       0.067000
     12 C16        -34.5360   -56.2640   -22.9720 c6         1 A1A       0.136600
     13 C17        -36.5160   -56.2100   -24.2220 c6         1 A1A       0.195600
     14 C18        -37.7280   -57.0230   -24.5780 ca         1 A1A      -0.084300
     15 C19        -38.4400   -57.7060   -23.5950 ca         1 A1A      -0.089000
     16 C2         -34.2250   -52.2750   -23.0920 ca         1 A1A      -0.177600
     17 C20        -39.5780   -58.4270   -23.9260 ca         1 A1A      -0.115000
     18 C21        -40.0210   -58.4710   -25.2430 ca         1 A1A      -0.104000
     19 C22        -39.3170   -57.7910   -26.2270 ca         1 A1A      -0.115000
     20 C23        -38.1760   -57.0720   -25.8930 ca         1 A1A      -0.089000
     21 C3         -33.0390   -52.3870   -23.8000 ca         1 A1A       0.185000
     22 C4         -31.8870   -51.7140   -23.4300 ca         1 A1A      -0.211000
     23 C5         -31.9080   -50.8830   -22.3070 ca         1 A1A       0.288400
     24 C6         -28.7550   -49.2800   -19.9620 c5         1 A1A       0.239800
     25 C7         -27.4090   -48.7520   -19.4490 c5         1 A1A       0.173500
     26 C8         -26.1910   -48.1770   -17.4600 c3         1 A1A       0.154100
     27 C9         -28.2030   -46.9920   -17.9480 c3         1 A1A       0.154100
     28 F1         -28.8160   -51.5900   -22.2310 f          1 A1A      -0.293900
     29 N1         -30.8350   -50.1380   -21.8340 ne         1 A1A      -0.683900
     30 N2         -28.5950   -49.1990   -21.4190 n3         1 A1A      -0.796500
     31 N3         -27.4870   -48.2410   -18.1020 n3         1 A1A      -0.717600
     32 N4         -35.7420   -54.1680   -23.1370 n          1 A1A      -0.406800
     33 H2         -25.8580   -47.6310   -20.5430 hc         1 A1A       0.064200
     34 H3         -27.4520   -46.8680   -20.5510 hc         1 A1A       0.064200
     35 H4         -26.5750   -49.3580   -22.0730 h1         1 A1A       0.065700
     36 H5         -27.4540   -47.9480   -22.6970 h1         1 A1A       0.065700
     37 H6         -33.1240   -50.1200   -20.7140 ha         1 A1A       0.134000
     38 H7         -35.1470   -51.3280   -21.4060 ha         1 A1A       0.125000
     39 H8         -37.5010   -54.2870   -24.2580 h1         1 A1A       0.071700
     40 H9         -37.5560   -55.0950   -22.6890 h1         1 A1A       0.071700
     41 H10        -35.3900   -55.1510   -21.3350 h1         1 A1A       0.060200
     42 H11        -33.9590   -54.4150   -22.0480 h1         1 A1A       0.060200
     43 H12        -33.9770   -56.9090   -22.2930 h1         1 A1A       0.056200
     44 H13        -33.9020   -56.0590   -23.8460 h1         1 A1A       0.056200
     45 H14        -35.9600   -55.9640   -25.1410 h1         1 A1A       0.051700
     46 H15        -38.1080   -57.6810   -22.5640 ha         1 A1A       0.117500
     47 H16        -40.1210   -58.9570   -23.1540 ha         1 A1A       0.113000
     48 H17        -40.9070   -59.0360   -25.5000 ha         1 A1A       0.112000
     49 H18        -39.6510   -57.8240   -27.2560 ha         1 A1A       0.113000
     50 H19        -37.6260   -56.5480   -26.6670 ha         1 A1A       0.117500
     51 H20        -30.9960   -51.8390   -24.0300 ha         1 A1A       0.131000
     52 H21        -29.5990   -48.6640   -19.6520 h1         1 A1A       0.073200
     53 H22        -28.9340   -50.3010   -19.6260 h1         1 A1A       0.073200
     54 H23        -26.7260   -49.6070   -19.4220 h1         1 A1A       0.062700
     55 H24        -26.3160   -47.9280   -16.4050 h1         1 A1A       0.034867
     56 H25        -25.6920   -49.1450   -17.5150 h1         1 A1A       0.034867
     57 H26        -25.5190   -47.4240   -17.8980 h1         1 A1A       0.034867
     58 H27        -28.3650   -46.8000   -16.8870 h1         1 A1A       0.034867
     59 H28        -27.6740   -46.1220   -18.3620 h1         1 A1A       0.034867
     60 H29        -29.1850   -47.0380   -18.4190 h1         1 A1A       0.034867
     61 CL1        -32.9830   -53.4170   -25.1950 cl         1 A1A      -0.196000
@<TRIPOS>BOND
     1     1     3 2   
     2     1    28 1   
     3     1    29 2   
     4     1    30 1   
     5     2     5 2   
     6     4    12 1   
     7     4    13 1   
     8     5    16 1   
     9     5    32 1   
    10     6     7 1   
    11     6    25 1   
    12     6    33 1   
    13     6    34 1   
    14     7    30 1   
    15     7    35 1   
    16     7    36 1   
    17     8     9 ar  
    18     8    23 ar  
    19     8    37 1   
    20     9    16 ar  
    21     9    38 1   
    22    10    13 1   
    23    10    32 1   
    24    10    39 1   
    25    10    40 1   
    26    11    12 1   
    27    11    32 1   
    28    11    41 1   
    29    11    42 1   
    30    12    43 1   
    31    12    44 1   
    32    13    14 1   
    33    13    45 1   
    34    14    15 ar  
    35    14    20 ar  
    36    15    17 ar  
    37    15    46 1   
    38    16    21 ar  
    39    17    18 ar  
    40    17    47 1   
    41    18    19 ar  
    42    18    48 1   
    43    19    20 ar  
    44    19    49 1   
    45    20    50 1   
    46    21    22 ar  
    47    21    61 1   
    48    22    23 ar  
    49    22    51 1   
    50    23    29 1   
    51    24    25 1   
    52    24    30 1   
    53    24    52 1   
    54    24    53 1   
    55    25    31 1   
    56    25    54 1   
    57    26    31 1   
    58    26    55 1   
    59    26    56 1   
    60    26    57 1   
    61    27    31 1   
    62    27    58 1   
    63    27    59 1   
    64    27    60 1   
@<TRIPOS>SUBSTRUCTURE
     1 A1A         1 TEMP              0 ****  ****    0 ROOT
