@<TRIPOS>MOLECULE
A1A
   63    65     1     0     0
SMALL
No Charge or Current Charge


@<TRIPOS>ATOM
      1 C11        -14.7750     4.2180    21.9830 c          1 A1A       0.653100
      2 C13        -18.1890     5.8670    21.5830 c6         1 A1A       0.083000
      3 C14        -11.9480     2.1420    23.8620 ca         1 A1A      -0.045000
      4 C15        -11.2250     4.4670    23.8250 ca         1 A1A      -0.045000
      5 C17        -16.5410     7.7370    21.6710 c          1 A1A       0.491000
      6 S01         -8.2160     5.9410    21.5440 ss         1 A1A      -0.577000
      7 O02        -11.1960     4.9120    20.0960 o          1 A1A      -0.585100
      8 O05        -15.1060     3.1040    22.3610 o          1 A1A      -0.616100
      9 O06        -14.2900     6.9540    21.1080 o          1 A1A      -0.482000
     10 O07        -16.2580     8.9310    21.7350 o          1 A1A      -0.505000
     11 O          -10.0290     2.8790    26.9050 oh         1 A1A      -0.525100
     12 N01         -7.7960     3.4840    22.7260 n7         1 A1A      -0.817400
     13 N02        -10.0690     3.1050    20.9270 ns         1 A1A      -0.490900
     14 N03        -13.4710     4.4810    21.6610 ns         1 A1A      -0.484900
     15 N04        -15.7100     5.2730    21.8620 n          1 A1A      -0.388400
     16 N05        -17.8800     7.2980    21.7460 n          1 A1A      -0.405800
     17 C01         -7.7830     4.1570    21.4090 c6         1 A1A       0.348500
     18 C02         -8.7050     3.4060    20.3950 c3         1 A1A      -0.006300
     19 C03         -8.0090     2.1190    19.9030 c          1 A1A       0.593900
     20 C07         -7.3180     4.3180    23.8990 c6         1 A1A       0.064700
     21 C04         -6.2230     5.3050    23.4710 c2         1 A1A      -0.115400
     22 C05         -6.7460     6.4140    22.5660 c6         1 A1A       0.124800
     23 C06        -11.1720     3.9310    20.8290 c          1 A1A       0.603100
     24 C08         -4.9270     5.2160    23.8170 c2         1 A1A      -0.291000
     25 CA         -12.3570     3.5190    21.7530 c3         1 A1A       0.099000
     26 C09         -7.0230     3.5060    25.2330 c          1 A1A       0.728000
     27 C10        -11.8600     3.3790    23.1920 ca         1 A1A      -0.152300
     28 C12        -17.1260     4.9540    22.2360 c6         1 A1A       0.089000
     29 C16        -15.4020     6.6200    21.5080 c          1 A1A       0.488000
     30 C19        -19.0000     8.2500    21.9260 c3         1 A1A       0.101000
     31 C20        -11.3650     1.9850    25.1310 ca         1 A1A      -0.170000
     32 C21        -10.6430     4.3030    25.0910 ca         1 A1A      -0.170000
     33 C22        -10.6910     3.0580    25.7310 ca         1 A1A       0.151100
     34 C23        -19.7070     8.5880    20.6020 c3         1 A1A      -0.117100
     35 H1         -19.1740     5.6420    22.0160 h1         1 A1A       0.056700
     36 H2         -18.2440     5.6420    20.5090 h1         1 A1A       0.056700
     37 H3         -12.4380     1.2940    23.3870 ha         1 A1A       0.115000
     38 H4         -11.1460     5.4280    23.3200 ha         1 A1A       0.115000
     39 H6          -9.1440     3.3260    26.8040 ho         1 A1A       0.457000
     40 H9         -10.1820     2.2770    21.5020 hn         1 A1A       0.332500
     41 H10        -13.2760     5.4180    21.3190 hn         1 A1A       0.376500
     42 H11         -6.7500     4.1410    21.0240 h2         1 A1A       0.081700
     43 H12         -8.7990     4.0430    19.5080 h1         1 A1A       0.098700
     44 H13         -6.9960     2.2690    19.4700 h4         1 A1A       0.006200
     45 H14         -8.1720     4.9510    24.1790 h1         1 A1A       0.038700
     46 H16         -5.9510     6.7230    21.8720 h1         1 A1A       0.058700
     47 H17         -7.0170     7.2930    23.1680 h1         1 A1A       0.058700
     48 H18         -4.1930     5.9450    23.4710 ha         1 A1A       0.165500
     49 H19         -4.5450     4.4140    24.4490 ha         1 A1A       0.165500
     50 H21        -12.7070     2.5440    21.3910 h1         1 A1A       0.078700
     51 H22        -17.2210     5.0290    23.3290 h1         1 A1A       0.076700
     52 H23        -17.3700     3.9170    21.9630 h1         1 A1A       0.076700
     53 H24        -18.6370     9.1770    22.3890 h1         1 A1A       0.058200
     54 H25        -19.7300     7.8120    22.6190 h1         1 A1A       0.058200
     55 H26        -11.4030     1.0200    25.6310 ha         1 A1A       0.124000
     56 H27        -10.1290     5.1390    25.5590 ha         1 A1A       0.124000
     57 H28        -20.5270     9.2940    20.7790 hc         1 A1A       0.043033
     58 H29        -19.0040     9.0450    19.8960 hc         1 A1A       0.043033
     59 H30        -20.1250     7.6840    20.1430 hc         1 A1A       0.043033
     60 O01         -8.5080     0.9970    19.9630 o          1 A1A      -0.523100
     61 O03         -6.2760     2.5350    25.1890 o          1 A1A      -0.711500
     62 O04         -7.6080     3.8500    26.2560 o          1 A1A      -0.711500
     63 H7          -8.7650     3.2230    22.9260 hn         1 A1A       0.409000
@<TRIPOS>BOND
     1     1     8 2   
     2     1    14 1   
     3     1    15 1   
     4     2    16 1   
     5     2    28 1   
     6     2    35 1   
     7     2    36 1   
     8     3    27 ar  
     9     3    31 ar  
    10     3    37 1   
    11     4    27 ar  
    12     4    32 ar  
    13     4    38 1   
    14     5    10 2   
    15     5    16 1   
    16     5    29 1   
    17     6    17 1   
    18     6    22 1   
    19     7    23 2   
    20     9    29 2   
    21    11    33 1   
    22    11    39 1   
    23    12    17 1   
    24    12    20 1   
    25    12    63 1   
    26    13    18 1   
    27    13    23 1   
    28    13    40 1   
    29    14    25 1   
    30    14    41 1   
    31    15    28 1   
    32    15    29 1   
    33    16    30 1   
    34    17    18 1   
    35    17    42 1   
    36    18    19 1   
    37    18    43 1   
    38    19    44 1   
    39    19    60 2   
    40    20    21 1   
    41    20    26 1   
    42    20    45 1   
    43    21    22 1   
    44    21    24 2   
    45    22    46 1   
    46    22    47 1   
    47    23    25 1   
    48    24    48 1   
    49    24    49 1   
    50    25    27 1   
    51    25    50 1   
    52    26    61 1   
    53    26    62 1   
    54    28    51 1   
    55    28    52 1   
    56    30    34 1   
    57    30    53 1   
    58    30    54 1   
    59    31    33 ar  
    60    31    55 1   
    61    32    33 ar  
    62    32    56 1   
    63    34    57 1   
    64    34    58 1   
    65    34    59 1   
@<TRIPOS>SUBSTRUCTURE
     1 A1A         1 TEMP              0 ****  ****    0 ROOT
