@<TRIPOS>MOLECULE
A1A
   61    64     1     0     0
SMALL
No Charge or Current Charge


@<TRIPOS>ATOM
      1 C10        -20.1070     9.2590   -12.9400 c5         1 A1A      -0.089400
      2 C11        -18.6340     9.7250   -12.8250 c5         1 A1A       0.226800
      3 C13        -16.2470    12.5140    -7.4300 ca         1 A1A       0.179000
      4 C15        -14.8180    15.5100    -6.8120 c6         1 A1A       0.070000
      5 C16        -15.3390    16.8930    -6.3480 c6         1 A1A       0.150600
      6 C17        -14.5560    16.5650    -4.0900 c6         1 A1A       0.203600
      7 C18        -15.9670    16.6040    -3.4580 ca         1 A1A      -0.096300
      8 C19        -16.8000    15.4640    -3.3730 ca         1 A1A      -0.091500
      9 C20        -18.0780    15.5580    -2.7940 ca         1 A1A      -0.113000
     10 C21        -18.5380    16.7860    -2.2920 ca         1 A1A      -0.104000
     11 C12        -16.7640    11.9620    -8.6110 ca         1 A1A      -0.160000
     12 C14        -13.9950    15.1560    -4.4450 c6         1 A1A       0.068000
     13 C2         -14.8530    12.6070    -7.2390 ca         1 A1A      -0.171600
     14 C22        -17.7190    17.9230    -2.3710 ca         1 A1A      -0.113000
     15 C23        -16.4420    17.8310    -2.9500 ca         1 A1A      -0.091500
     16 C3         -13.9920    12.1280    -8.2450 ca         1 A1A       0.179000
     17 C4         -14.5160    11.5790    -9.4250 ca         1 A1A      -0.160000
     18 C5         -15.9010    11.4890    -9.6070 ca         1 A1A       0.288400
     19 C6         -19.3750     9.6970   -10.6210 c5         1 A1A       0.195800
     20 C7         -20.6610     9.4730   -11.4960 c5         1 A1A       0.183500
     21 F1         -15.9700     8.8510   -12.3030 f          1 A1A      -0.293900
     22 N1         -16.4190    10.9510   -10.7850 ne         1 A1A      -0.683900
     23 N2         -18.2790     9.2080   -11.4880 n3         1 A1A      -0.789500
     24 N3         -21.5660    10.6870   -11.4580 n3         1 A1A      -0.721600
     25 N4         -14.5450    14.5430    -5.6990 n          1 A1A      -0.403800
     26 O1         -13.6750    12.4770    -5.1880 o          1 A1A      -0.571100
     27 O2         -16.3770     8.4730    -9.8100 o          1 A1A      -0.538000
     28 O3         -14.5350    17.4040    -5.2650 os         1 A1A      -0.451000
     29 S1         -16.6700     9.3850   -10.9200 s6         1 A1A       1.344500
     30 Cl2        -17.3840    13.0450    -6.1920 cl         1 A1A      -0.182000
     31 H1         -20.6660     9.7830   -13.7210 hc         1 A1A       0.066700
     32 H2         -20.1400     8.1950   -13.1970 hc         1 A1A       0.066700
     33 H3         -18.0210     9.2990   -13.6310 h1         1 A1A       0.068200
     34 H4         -18.5450    10.8190   -12.8750 h1         1 A1A       0.068200
     35 H5         -15.5540    15.0920    -7.5100 h1         1 A1A       0.057200
     36 H6         -13.8870    15.6570    -7.3780 h1         1 A1A       0.057200
     37 H7         -15.3040    17.6030    -7.1870 h1         1 A1A       0.053200
     38 H8         -16.3860    16.8110    -6.0250 h1         1 A1A       0.053200
     39 H9         -13.8690    17.0100    -3.3560 h1         1 A1A       0.061700
     40 H10        -16.4750    14.5000    -3.7520 ha         1 A1A       0.116000
     41 H11        -18.7120    14.6760    -2.7350 ha         1 A1A       0.113000
     42 H12        -19.5270    16.8560    -1.8450 ha         1 A1A       0.112000
     43 H13        -17.8380    11.9000    -8.7500 ha         1 A1A       0.143500
     44 H14        -14.1610    14.4810    -3.5930 h1         1 A1A       0.072200
     45 H15        -12.9060    15.2450    -4.5620 h1         1 A1A       0.072200
     46 H16        -18.0730    18.8760    -1.9840 ha         1 A1A       0.113000
     47 H17        -15.8170    18.7200    -3.0090 ha         1 A1A       0.116000
     48 H18        -13.8430    11.2290   -10.2020 ha         1 A1A       0.143500
     49 H19        -19.2320    10.7550   -10.3650 h1         1 A1A       0.068200
     50 H20        -19.4340     9.1400    -9.6760 h1         1 A1A       0.068200
     51 H21        -21.1960     8.5710   -11.1690 h1         1 A1A       0.073700
     52 H22        -22.7850     9.9180    -9.8850 h1         1 A1A       0.034867
     53 H23        -21.5990    11.1420    -9.3710 h1         1 A1A       0.034867
     54 H24        -23.0600    11.6310   -10.2610 h1         1 A1A       0.034867
     55 H25        -21.8410    12.7350   -11.9960 h1         1 A1A       0.034867
     56 H26        -20.2450    12.3790   -11.3140 h1         1 A1A       0.034867
     57 H27        -20.6400    11.8980   -12.9800 h1         1 A1A       0.034867
     58 C8         -22.2880    10.8540   -10.1760 c3         1 A1A       0.155100
     59 C9         -21.0390    11.9860   -11.9630 c3         1 A1A       0.155100
     60 Cl1        -12.2410    12.2490    -8.0810 cl         1 A1A      -0.182000
     61 C1         -14.2830    13.1840    -5.9820 c          1 A1A       0.635700
@<TRIPOS>BOND
     1     1     2 1   
     2     1    20 1   
     3     1    31 1   
     4     1    32 1   
     5     2    23 1   
     6     2    33 1   
     7     2    34 1   
     8     3    11 ar  
     9     3    13 ar  
    10     3    30 1   
    11     4     5 1   
    12     4    25 1   
    13     4    35 1   
    14     4    36 1   
    15     5    28 1   
    16     5    37 1   
    17     5    38 1   
    18     6     7 1   
    19     6    12 1   
    20     6    28 1   
    21     6    39 1   
    22     7     8 ar  
    23     7    15 ar  
    24     8     9 ar  
    25     8    40 1   
    26     9    10 ar  
    27     9    41 1   
    28    10    14 ar  
    29    10    42 1   
    30    11    18 ar  
    31    11    43 1   
    32    12    25 1   
    33    12    44 1   
    34    12    45 1   
    35    13    16 ar  
    36    13    61 1   
    37    14    15 ar  
    38    14    46 1   
    39    15    47 1   
    40    16    17 ar  
    41    16    60 1   
    42    17    18 ar  
    43    17    48 1   
    44    18    22 1   
    45    19    20 1   
    46    19    23 1   
    47    19    49 1   
    48    19    50 1   
    49    20    24 1   
    50    20    51 1   
    51    21    29 1   
    52    22    29 2   
    53    23    29 1   
    54    24    58 1   
    55    24    59 1   
    56    25    61 1   
    57    26    61 2   
    58    27    29 2   
    59    52    58 1   
    60    53    58 1   
    61    54    58 1   
    62    55    59 1   
    63    56    59 1   
    64    57    59 1   
@<TRIPOS>SUBSTRUCTURE
     1 A1A         1 TEMP              0 ****  ****    0 ROOT
