@<TRIPOS>MOLECULE
A1A
   61    64     1     0     0
SMALL
abcg2


@<TRIPOS>ATOM
      1 C10        -18.6250     8.7720   -13.9280 c5         1 A1A      -0.089400
      2 C11        -17.3540     8.9000   -13.1020 c5         1 A1A       0.226800
      3 C13        -17.9440    12.2440    -6.4410 ca         1 A1A       0.179000
      4 C15        -16.7880    15.5730    -6.1850 c6         1 A1A       0.070000
      5 C16        -17.0230    17.0230    -5.8120 c6         1 A1A       0.150600
      6 C17        -15.1700    16.8360    -4.3180 c6         1 A1A       0.203600
      7 C18        -14.7710    17.6770    -3.1330 ca         1 A1A      -0.096300
      8 C19        -15.6380    18.6330    -2.6090 ca         1 A1A      -0.091500
      9 C20        -15.2790    19.3650    -1.4860 ca         1 A1A      -0.113000
     10 C21        -14.0520    19.1510    -0.8730 ca         1 A1A      -0.104000
     11 C12        -18.2350    11.4870    -7.5580 ca         1 A1A      -0.160000
     12 C14        -15.9810    15.6310    -3.8460 c6         1 A1A       0.068000
     13 C2         -16.6830    12.7800    -6.2150 ca         1 A1A      -0.171600
     14 C22        -13.1820    18.2010    -1.3900 ca         1 A1A      -0.113000
     15 C23        -13.5410    17.4710    -2.5160 ca         1 A1A      -0.091500
     16 C3         -15.7130    12.5180    -7.1700 ca         1 A1A       0.179000
     17 C4         -15.9600    11.7600    -8.3010 ca         1 A1A      -0.160000
     18 C5         -17.2380    11.2310    -8.5020 ca         1 A1A       0.288400
     19 C6         -19.3150     9.5060   -11.7480 c5         1 A1A       0.195800
     20 C7         -19.7180     8.5470   -12.8860 c5         1 A1A       0.183500
     21 F1         -17.0270    11.8440   -11.5480 f          1 A1A      -0.293900
     22 N1         -17.6070    10.4210    -9.5660 ne         1 A1A      -0.683900
     23 N2         -17.8520     9.4580   -11.8260 n3         1 A1A      -0.789500
     24 N3         -21.0720     8.6470   -13.3730 n3         1 A1A      -0.721600
     25 N4         -16.3900    14.8350    -4.9910 n          1 A1A      -0.403800
     26 O1         -16.0640    12.8520    -3.9420 o          1 A1A      -0.571100
     27 O2         -15.5250    10.0230   -11.1180 o          1 A1A      -0.538000
     28 O3         -15.8810    17.6280    -5.2500 os         1 A1A      -0.451000
     29 S1         -16.9170    10.3500   -10.9070 s6         1 A1A       1.344500
     30 CL2        -19.2010    12.5780    -5.3010 cl         1 A1A      -0.182000
     31 H1         -18.7920     9.6960   -14.4840 hc         1 A1A       0.066700
     32 H2         -18.5590     7.9540   -14.6440 hc         1 A1A       0.066700
     33 H3         -16.8870     7.9330   -12.9140 h1         1 A1A       0.068200
     34 H4         -16.6220     9.5520   -13.5750 h1         1 A1A       0.068200
     35 H5         -17.7160    15.1740    -6.5990 h1         1 A1A       0.057200
     36 H6         -16.0200    15.5050    -6.9600 h1         1 A1A       0.057200
     37 H7         -17.2730    17.5810    -6.7150 h1         1 A1A       0.053200
     38 H8         -17.8840    17.0940    -5.1370 h1         1 A1A       0.053200
     39 H9         -14.2600    16.4510    -4.7990 h1         1 A1A       0.061700
     40 H10        -16.5970    18.8150    -3.0780 ha         1 A1A       0.116000
     41 H11        -15.9610    20.1070    -1.0900 ha         1 A1A       0.113000
     42 H12        -13.7730    19.7250     0.0020 ha         1 A1A       0.112000
     43 H13        -19.2280    11.0880    -7.7110 ha         1 A1A       0.143500
     44 H14        -16.8510    15.9560    -3.2660 h1         1 A1A       0.072200
     45 H15        -15.3620    15.0240    -3.1880 h1         1 A1A       0.072200
     46 H16        -12.2200    18.0320    -0.9230 ha         1 A1A       0.113000
     47 H17        -12.8550    16.7370    -2.9220 ha         1 A1A       0.116000
     48 H18        -15.1540    11.5720    -8.9960 ha         1 A1A       0.143500
     49 H19        -19.6860    10.5200   -11.9210 h1         1 A1A       0.068200
     50 H20        -19.6570     9.1690   -10.7720 h1         1 A1A       0.068200
     51 H21        -19.5990     7.5280   -12.5030 h1         1 A1A       0.073700
     52 H22        -21.7640     7.2180   -12.0110 h1         1 A1A       0.034867
     53 H23        -22.1460     8.8790   -11.5330 h1         1 A1A       0.034867
     54 H24        -23.0240     8.1130   -12.8600 h1         1 A1A       0.034867
     55 H25        -22.4500     9.8280   -14.3770 h1         1 A1A       0.034867
     56 H26        -21.4890    10.7490   -13.2230 h1         1 A1A       0.034867
     57 H27        -20.7830    10.2100   -14.7540 h1         1 A1A       0.034867
     58 C8         -22.0410     8.2010   -12.3930 c3         1 A1A       0.155100
     59 C9         -21.4530     9.9210   -13.9450 c3         1 A1A       0.155100
     60 CL1        -14.1260    13.1700    -6.9410 cl         1 A1A      -0.182000
     61 C1         -16.3510    13.4960    -4.9360 c          1 A1A       0.635700
@<TRIPOS>BOND
     1     1     2 1   
     2     1    20 1   
     3     1    31 1   
     4     1    32 1   
     5     2    23 1   
     6     2    33 1   
     7     2    34 1   
     8     3    11 ar  
     9     3    13 ar  
    10     3    30 1   
    11     4     5 1   
    12     4    25 1   
    13     4    35 1   
    14     4    36 1   
    15     5    28 1   
    16     5    37 1   
    17     5    38 1   
    18     6     7 1   
    19     6    12 1   
    20     6    28 1   
    21     6    39 1   
    22     7     8 ar  
    23     7    15 ar  
    24     8     9 ar  
    25     8    40 1   
    26     9    10 ar  
    27     9    41 1   
    28    10    14 ar  
    29    10    42 1   
    30    11    18 ar  
    31    11    43 1   
    32    12    25 1   
    33    12    44 1   
    34    12    45 1   
    35    13    16 ar  
    36    13    61 1   
    37    14    15 ar  
    38    14    46 1   
    39    15    47 1   
    40    16    17 ar  
    41    16    60 1   
    42    17    18 ar  
    43    17    48 1   
    44    18    22 1   
    45    19    20 1   
    46    19    23 1   
    47    19    49 1   
    48    19    50 1   
    49    20    24 1   
    50    20    51 1   
    51    21    29 1   
    52    22    29 2   
    53    23    29 1   
    54    24    58 1   
    55    24    59 1   
    56    25    61 1   
    57    26    61 2   
    58    27    29 2   
    59    52    58 1   
    60    53    58 1   
    61    54    58 1   
    62    55    59 1   
    63    56    59 1   
    64    57    59 1   
@<TRIPOS>SUBSTRUCTURE
     1 A1A         1 TEMP              0 ****  ****    0 ROOT
