@<TRIPOS>MOLECULE
A1A
   24    24     1     0     0
SMALL
abcg2


@<TRIPOS>ATOM
      1 N1          89.3240   -26.1040    33.0690 n8         1 A1A      -1.005200
      2 C5          87.9250   -28.0960    32.8840 c3         1 A1A      -0.032100
      3 C6          88.5670   -28.6240    31.6230 ca         1 A1A       0.041700
      4 C7          88.7580   -27.8050    30.5090 ca         1 A1A      -0.099000
      5 C8          89.0070   -29.9420    31.4770 ca         1 A1A      -0.185200
      6 C10         89.6040   -30.4280    30.3200 ca         1 A1A      -0.071000
      7 C2          87.9520   -26.5790    33.0710 c3         1 A1A       0.004500
      8 C3          87.1140   -26.2280    34.3350 c          1 A1A       0.695000
      9 C9          89.3190   -28.2740    29.3320 ca         1 A1A      -0.087000
     10 C11         89.7460   -29.5910    29.2310 ca         1 A1A      -0.144000
     11 N23         88.8560   -30.9060    32.5600 no         1 A1A       0.691200
     12 OXT         85.9040   -26.5310    34.2780 o          1 A1A      -0.724500
     13 O24         87.7960   -30.9560    33.1380 o          1 A1A      -0.406500
     14 O25         89.7970   -31.6230    32.8040 o          1 A1A      -0.406500
     15 H1          89.3190   -25.0950    33.1630 hn         1 A1A       0.387000
     16 H2          89.7720   -26.4320    33.9170 hn         1 A1A       0.387000
     17 H4          86.8850   -28.4250    32.9080 hc         1 A1A       0.078700
     18 H5          88.4030   -28.5470    33.7590 hc         1 A1A       0.078700
     19 H6          88.4670   -26.7660    30.5650 ha         1 A1A       0.142000
     20 H7          89.9330   -31.4570    30.2630 ha         1 A1A       0.126000
     21 H8          87.4320   -26.1130    32.2260 h1         1 A1A       0.037700
     22 O1          87.7080   -25.6860    35.2850 o          1 A1A      -0.724500
     23 H11         89.4320   -27.6020    28.4920 ha         1 A1A       0.107000
     24 H12         90.1860   -29.9630    28.3160 ha         1 A1A       0.108000
@<TRIPOS>BOND
     1     1     7 1   
     2     1    15 1   
     3     1    16 1   
     4     2     3 1   
     5     2     7 1   
     6     2    17 1   
     7     2    18 1   
     8     3     4 ar  
     9     3     5 ar  
    10     4     9 ar  
    11     4    19 1   
    12     5     6 ar  
    13     5    11 1   
    14     6    10 ar  
    15     6    20 1   
    16     7     8 1   
    17     7    21 1   
    18     8    12 1   
    19     8    22 1   
    20     9    10 ar  
    21     9    23 1   
    22    10    24 1   
    23    11    13 1   
    24    11    14 1   
@<TRIPOS>SUBSTRUCTURE
     1 A1A         1 TEMP              0 ****  ****    0 ROOT
