@<TRIPOS>MOLECULE
A1A
   25    25     1     0     0
SMALL
No Charge or Current Charge


@<TRIPOS>ATOM
      1 C11         89.0940   -29.7210    28.7960 ca         1 A1A      -0.139000
      2 C10         89.1340   -30.4950    29.9650 ca         1 A1A      -0.123000
      3 C2          87.5130   -26.5100    32.7110 c3         1 A1A       0.005500
      4 C23         88.7460   -30.8570    32.4340 c3         1 A1A      -0.041800
      5 C3          86.7640   -26.1690    34.0650 c          1 A1A       0.694000
      6 C5          87.7210   -28.0500    32.6040 c3         1 A1A      -0.027100
      7 C6          88.2180   -28.6260    31.2600 ca         1 A1A      -0.034300
      8 C7          88.1740   -27.8660    30.0660 ca         1 A1A      -0.092000
      9 C8          88.6960   -29.9640    31.1950 ca         1 A1A      -0.095300
     10 C9          88.6110   -28.4080    28.8470 ca         1 A1A      -0.126000
     11 N1          88.8060   -25.7630    32.4710 n8         1 A1A      -1.000200
     12 OXT         85.5980   -25.8030    34.0060 o          1 A1A      -0.732000
     13 O1          87.4090   -26.1770    35.1060 o          1 A1A      -0.732000
     14 H1          89.4330   -30.1420    27.8520 ha         1 A1A       0.091000
     15 H2          89.5060   -31.5160    29.9110 ha         1 A1A       0.090000
     16 H3          86.8190   -26.2130    31.9140 h1         1 A1A       0.042700
     17 H4          89.4940   -30.4960    33.1500 hc         1 A1A       0.035700
     18 H5          87.7760   -30.8890    32.9420 hc         1 A1A       0.035700
     19 H6          89.0110   -31.8910    32.1800 hc         1 A1A       0.035700
     20 H7          86.7650   -28.5310    32.8460 hc         1 A1A       0.056700
     21 H8          88.4080   -28.3410    33.4070 hc         1 A1A       0.056700
     22 H9          87.8030   -26.8450    30.0690 ha         1 A1A       0.138000
     23 H10         88.5740   -27.8070    27.9410 ha         1 A1A       0.095000
     24 H11         88.6230   -24.7530    32.5230 hn         1 A1A       0.383500
     25 H12         89.4260   -25.9260    33.2740 hn         1 A1A       0.383500
@<TRIPOS>BOND
     1     1     2 ar  
     2     1    10 ar  
     3     1    14 1   
     4     2     9 ar  
     5     2    15 1   
     6     3     5 1   
     7     3     6 1   
     8     3    11 1   
     9     3    16 1   
    10     4     9 1   
    11     4    17 1   
    12     4    18 1   
    13     4    19 1   
    14     5    12 1   
    15     5    13 1   
    16     6     7 1   
    17     6    20 1   
    18     6    21 1   
    19     7     8 ar  
    20     7     9 ar  
    21     8    10 ar  
    22     8    22 1   
    23    10    23 1   
    24    11    24 1   
    25    11    25 1   
@<TRIPOS>SUBSTRUCTURE
     1 A1A         1 TEMP              0 ****  ****    0 ROOT
