@<TRIPOS>MOLECULE
A1A
   26    26     1     0     0
SMALL
No Charge or Current Charge


@<TRIPOS>ATOM
      1 C10         89.4050   -30.4830    30.1100 ca         1 A1A      -0.211000
      2 C11         89.2860   -29.6970    28.9540 ca         1 A1A      -0.105000
      3 C2          87.5980   -26.6660    32.9660 c3         1 A1A       0.003500
      4 C3          86.8740   -26.3950    34.3490 c          1 A1A       0.695000
      5 C5          87.8660   -28.1930    32.8100 c3         1 A1A      -0.019100
      6 C6          88.3760   -28.7010    31.4460 ca         1 A1A      -0.060300
      7 C7          88.2540   -27.9280    30.2670 ca         1 A1A      -0.069000
      8 C8          88.9490   -29.9950    31.3570 ca         1 A1A       0.115100
      9 C9          88.7090   -28.4230    29.0330 ca         1 A1A      -0.155000
     10 N1          88.8510   -25.8580    32.7090 n8         1 A1A      -1.004200
     11 O23         89.0400   -30.7600    32.5070 os         1 A1A      -0.332100
     12 H1          89.8500   -31.4690    30.0170 ha         1 A1A       0.097000
     13 H2          89.6370   -30.0770    27.9970 ha         1 A1A       0.090000
     14 H3          86.8700   -26.3790    32.1950 h1         1 A1A       0.040700
     15 H4          89.5730   -32.5010    33.5290 h1         1 A1A       0.028367
     16 H5          89.0330   -32.7520    31.8550 h1         1 A1A       0.028367
     17 H6          90.6480   -32.0650    32.1840 h1         1 A1A       0.028367
     18 H9          86.9330   -28.7220    33.0420 hc         1 A1A       0.063200
     19 H10         88.5710   -28.4850    33.5970 hc         1 A1A       0.063200
     20 H11         87.8080   -26.9380    30.2930 ha         1 A1A       0.142000
     21 H12         88.6120   -27.8150    28.1370 ha         1 A1A       0.099000
     22 H13         88.6270   -24.8590    32.7910 hn         1 A1A       0.383500
     23 H14         89.5000   -26.0140    33.4900 hn         1 A1A       0.383500
     24 OXT         87.5500   -26.3900    35.3700 o          1 A1A      -0.732000
     25 O1          85.6900   -26.0900    34.3320 o          1 A1A      -0.732000
     26 C24         89.6020   -32.0840    32.5150 c3         1 A1A       0.153900
@<TRIPOS>BOND
     1     1     2 ar  
     2     1     8 ar  
     3     1    12 1   
     4     2     9 ar  
     5     2    13 1   
     6     3     4 1   
     7     3     5 1   
     8     3    10 1   
     9     3    14 1   
    10     4    24 1   
    11     4    25 1   
    12     5     6 1   
    13     5    18 1   
    14     5    19 1   
    15     6     7 ar  
    16     6     8 ar  
    17     7     9 ar  
    18     7    20 1   
    19     8    11 1   
    20     9    21 1   
    21    10    22 1   
    22    10    23 1   
    23    11    26 1   
    24    15    26 1   
    25    16    26 1   
    26    17    26 1   
@<TRIPOS>SUBSTRUCTURE
     1 A1A         1 TEMP              0 ****  ****    0 ROOT
