@<TRIPOS>MOLECULE
A1A
   61    64     1     0     0
SMALL
No Charge or Current Charge


@<TRIPOS>ATOM
      1 C1         -34.3230   -52.1420   -24.3460 c          1 A1A       0.630700
      2 C10        -29.4750   -48.4850   -20.0180 c5         1 A1A      -0.091400
      3 C11        -28.9160   -48.4470   -21.4740 c5         1 A1A       0.231800
      4 C12        -31.3890   -49.7420   -24.0160 ca         1 A1A      -0.116000
      5 C13        -32.6860   -50.2800   -23.9800 ca         1 A1A      -0.052000
      6 C14        -35.8960   -54.0220   -23.8010 c6         1 A1A       0.062000
      7 C15        -33.6950   -53.8450   -22.5940 c6         1 A1A       0.068000
      8 C16        -33.8430   -55.3450   -22.2370 c6         1 A1A       0.137600
      9 C17        -35.9390   -55.5180   -23.3840 c6         1 A1A       0.196600
     10 C18        -37.3710   -56.0400   -23.2260 ca         1 A1A      -0.085300
     11 C19        -37.8770   -57.0020   -24.1250 ca         1 A1A      -0.089500
     12 C2         -32.9210   -51.6020   -24.4110 ca         1 A1A      -0.169600
     13 C20        -39.1920   -57.4780   -23.9900 ca         1 A1A      -0.114000
     14 C21        -40.0120   -56.9980   -22.9550 ca         1 A1A      -0.104000
     15 C22        -39.5150   -56.0410   -22.0540 ca         1 A1A      -0.114000
     16 C23        -38.2000   -55.5640   -22.1890 ca         1 A1A      -0.089500
     17 C3         -31.8430   -52.3540   -24.9330 ca         1 A1A       0.179000
     18 C4         -30.5520   -51.8060   -24.9670 ca         1 A1A      -0.200000
     19 C5         -30.3150   -50.5100   -24.4910 ca         1 A1A       0.277400
     20 C6         -28.6050   -50.6220   -20.6440 c5         1 A1A       0.234800
     21 C7         -29.7120   -50.0000   -19.7460 c5         1 A1A       0.169500
     22 F1         -27.9740   -51.8640   -23.0650 f          1 A1A      -0.294900
     23 N1         -29.0240   -49.9760   -24.5240 ne         1 A1A      -0.686900
     24 N2         -28.8480   -49.8650   -21.8890 n3         1 A1A      -0.799500
     25 N3         -29.4430   -50.2840   -18.2890 n3         1 A1A      -0.709600
     26 N4         -34.5300   -53.4110   -23.7610 n          1 A1A      -0.406800
     27 O1         -35.2500   -51.5180   -24.8460 o          1 A1A      -0.582100
     28 O2         -26.6480   -49.6870   -23.3480 o          1 A1A      -0.538000
     29 O3         -35.2340   -55.7060   -22.1420 os         1 A1A      -0.445000
     30 S1         -28.0030   -50.2460   -23.3310 s6         1 A1A       1.347500
     31 Cl1        -32.0700   -53.9610   -25.6260 cl         1 A1A      -0.194000
     32 H2         -30.3980   -47.9040   -19.9210 hc         1 A1A       0.066200
     33 H3         -27.9210   -47.9780   -21.4820 h1         1 A1A       0.065700
     34 H4         -29.5590   -47.8590   -22.1420 h1         1 A1A       0.065700
     35 H5         -31.2150   -48.7270   -23.6690 ha         1 A1A       0.132000
     36 H6         -33.5070   -49.6740   -23.6000 ha         1 A1A       0.126000
     37 H7         -36.3060   -53.9350   -24.8170 h1         1 A1A       0.071700
     38 H8         -36.5560   -53.4450   -23.1380 h1         1 A1A       0.071700
     39 H9         -33.9860   -53.2470   -21.7180 h1         1 A1A       0.059700
     40 H10        -32.6320   -53.6400   -22.7770 h1         1 A1A       0.059700
     41 H11        -33.3500   -55.5520   -21.2760 h1         1 A1A       0.056200
     42 H12        -33.3600   -55.9630   -23.0080 h1         1 A1A       0.056200
     43 H13        -35.4290   -56.1100   -24.1590 h1         1 A1A       0.051700
     44 H14        -37.2510   -57.3800   -24.9320 ha         1 A1A       0.117500
     45 H15        -39.5760   -58.2190   -24.6870 ha         1 A1A       0.113000
     46 H16        -41.0300   -57.3670   -22.8500 ha         1 A1A       0.112000
     47 H17        -40.1480   -55.6690   -21.2510 ha         1 A1A       0.113000
     48 H18        -37.8220   -54.8250   -21.4850 ha         1 A1A       0.117500
     49 H19        -29.7310   -52.3900   -25.3730 ha         1 A1A       0.136000
     50 H20        -28.7530   -51.7040   -20.7610 h1         1 A1A       0.073700
     51 H21        -27.5970   -50.4460   -20.2410 h1         1 A1A       0.073700
     52 H22        -30.7130   -50.3220   -20.0660 h1         1 A1A       0.039700
     53 H23        -30.0650   -49.7790   -16.3080 h1         1 A1A       0.035533
     54 H24        -30.2860   -48.4800   -17.4880 h1         1 A1A       0.035533
     55 H25        -31.3860   -49.8780   -17.4960 h1         1 A1A       0.035533
     56 H26        -29.1540   -51.8640   -16.8800 h1         1 A1A       0.035533
     57 H27        -30.3400   -52.2200   -18.1570 h1         1 A1A       0.035533
     58 H28        -28.5960   -52.2420   -18.5140 h1         1 A1A       0.035533
     59 H1         -28.7420   -48.0510   -19.3280 hc         1 A1A       0.066200
     60 C8         -30.3420   -49.5670   -17.3500 c3         1 A1A       0.146600
     61 C9         -29.3810   -51.7270   -17.9460 c3         1 A1A       0.146600
@<TRIPOS>BOND
     1     1    12 1   
     2     1    26 1   
     3     1    27 2   
     4     2     3 1   
     5     2    21 1   
     6     2    32 1   
     7     2    59 1   
     8     3    24 1   
     9     3    33 1   
    10     3    34 1   
    11     4     5 ar  
    12     4    19 ar  
    13     4    35 1   
    14     5    12 ar  
    15     5    36 1   
    16     6     9 1   
    17     6    26 1   
    18     6    37 1   
    19     6    38 1   
    20     7     8 1   
    21     7    26 1   
    22     7    39 1   
    23     7    40 1   
    24     8    29 1   
    25     8    41 1   
    26     8    42 1   
    27     9    10 1   
    28     9    29 1   
    29     9    43 1   
    30    10    11 ar  
    31    10    16 ar  
    32    11    13 ar  
    33    11    44 1   
    34    12    17 ar  
    35    13    14 ar  
    36    13    45 1   
    37    14    15 ar  
    38    14    46 1   
    39    15    16 ar  
    40    15    47 1   
    41    16    48 1   
    42    17    18 ar  
    43    17    31 1   
    44    18    19 ar  
    45    18    49 1   
    46    19    23 1   
    47    20    21 1   
    48    20    24 1   
    49    20    50 1   
    50    20    51 1   
    51    21    25 1   
    52    21    52 1   
    53    22    30 1   
    54    23    30 2   
    55    24    30 1   
    56    25    60 1   
    57    25    61 1   
    58    28    30 2   
    59    53    60 1   
    60    54    60 1   
    61    55    60 1   
    62    56    61 1   
    63    57    61 1   
    64    58    61 1   
@<TRIPOS>SUBSTRUCTURE
     1 A1A         1 TEMP              0 ****  ****    0 ROOT
