@<TRIPOS>MOLECULE
A1A
   40    43     1     0     0
SMALL
No Charge or Current Charge


@<TRIPOS>ATOM
      1 CAB        143.9130   146.0720   131.1540 cc         1 A1A       0.565500
      2 CAD        145.2650   147.8570   132.0760 c          1 A1A       0.578600
      3 CAE        146.3280   147.3810   131.1590 ca         1 A1A      -0.203600
      4 CAF        147.5830   148.0290   131.1010 ca         1 A1A      -0.040000
      5 CAG        148.5900   147.5430   130.2520 ca         1 A1A      -0.135000
      6 CAH        148.3490   146.4090   129.4640 ca         1 A1A      -0.075000
      7 CAI        147.1000   145.7700   129.5270 ca         1 A1A      -0.105000
      8 CAJ        146.0820   146.2500   130.3730 ca         1 A1A       0.188400
      9 CAL        143.0780   147.3760   133.0980 ca         1 A1A       0.025600
     10 CAM        142.4990   146.3010   133.8100 ca         1 A1A      -0.088500
     11 CAN        141.0120   147.8310   134.9920 ca         1 A1A      -0.065300
     12 CAO        142.5750   148.6760   133.3200 ca         1 A1A      -0.088500
     13 CAP        141.4840   146.5280   134.7550 ca         1 A1A      -0.106000
     14 CAQ        141.5590   148.9020   134.2650 ca         1 A1A      -0.106000
     15 CAR        139.9080   148.0750   136.0090 c3         1 A1A      -0.048800
     16 CAS        142.5700   145.4820   130.9730 ca         1 A1A      -0.141900
     17 CAT        141.4280   146.3020   130.8060 ca         1 A1A      -0.070000
     18 CAU        140.1610   145.7320   130.5980 ca         1 A1A      -0.116000
     19 CAV        140.0170   144.3380   130.5290 ca         1 A1A      -0.092000
     20 CAW        141.1460   143.5130   130.6560 ca         1 A1A      -0.116000
     21 CAX        142.4150   144.0810   130.8650 ca         1 A1A      -0.070000
     22 NAA        144.8640   145.5730   130.3570 nd         1 A1A      -0.626100
     23 NAC        144.0600   147.1440   132.0550 n          1 A1A      -0.258500
     24 OAK        145.4680   148.7930   132.8410 o          1 A1A      -0.517000
     25 H1         147.7830   148.9060   131.7140 ha         1 A1A       0.135000
     26 H2         149.5550   148.0430   130.2090 ha         1 A1A       0.119000
     27 H3         149.1250   146.0260   128.8040 ha         1 A1A       0.117000
     28 H4         146.9160   144.8940   128.9100 ha         1 A1A       0.133000
     29 H5         142.8490   145.2840   133.6500 ha         1 A1A       0.123500
     30 H6         142.9600   149.5170   132.7490 ha         1 A1A       0.123500
     31 H7         141.0620   145.6870   135.3010 ha         1 A1A       0.116000
     32 H8         141.1900   149.9130   134.4230 ha         1 A1A       0.116000
     33 H9         138.9210   148.0000   135.5380 hc         1 A1A       0.044367
     34 H10        139.9470   147.3430   136.8250 hc         1 A1A       0.044367
     35 H11        139.9910   149.0720   136.4580 hc         1 A1A       0.044367
     36 H12        141.5210   147.3860   130.8350 ha         1 A1A       0.123000
     37 H13        139.2900   146.3740   130.4840 ha         1 A1A       0.117000
     38 H14        139.0350   143.8980   130.3670 ha         1 A1A       0.115000
     39 H15        141.0390   142.4330   130.5900 ha         1 A1A       0.117000
     40 H16        143.2800   143.4260   130.9580 ha         1 A1A       0.123000
@<TRIPOS>BOND
     1     1    16 1   
     2     1    22 2   
     3     1    23 1   
     4     2     3 1   
     5     2    23 1   
     6     2    24 2   
     7     3     4 ar  
     8     3     8 ar  
     9     4     5 ar  
    10     4    25 1   
    11     5     6 ar  
    12     5    26 1   
    13     6     7 ar  
    14     6    27 1   
    15     7     8 ar  
    16     7    28 1   
    17     8    22 1   
    18     9    10 ar  
    19     9    12 ar  
    20     9    23 1   
    21    10    13 ar  
    22    10    29 1   
    23    11    13 ar  
    24    11    14 ar  
    25    11    15 1   
    26    12    14 ar  
    27    12    30 1   
    28    13    31 1   
    29    14    32 1   
    30    15    33 1   
    31    15    34 1   
    32    15    35 1   
    33    16    17 ar  
    34    16    21 ar  
    35    17    18 ar  
    36    17    36 1   
    37    18    19 ar  
    38    18    37 1   
    39    19    20 ar  
    40    19    38 1   
    41    20    21 ar  
    42    20    39 1   
    43    21    40 1   
@<TRIPOS>SUBSTRUCTURE
     1 A1A         1 TEMP              0 ****  ****    0 ROOT
