@<TRIPOS>MOLECULE
A1A
   33    35     1     0     0
SMALL
No Charge or Current Charge


@<TRIPOS>ATOM
      1 CAA        141.8460   149.2440   131.9280 c3         1 A1A      -0.050800
      2 CAB        141.6240   148.1990   133.0170 ca         1 A1A      -0.053300
      3 CAC        140.6750   148.4420   134.0310 ca         1 A1A      -0.108000
      4 CAD        140.4760   147.5070   135.0600 ca         1 A1A      -0.097000
      5 CAE        141.2400   146.3310   135.0950 ca         1 A1A      -0.109000
      6 CAF        142.1870   146.0810   134.0890 ca         1 A1A      -0.092000
      7 CAG        142.3450   146.9820   133.0180 ca         1 A1A       0.022600
      8 CAI        143.1500   146.0310   130.9100 cc         1 A1A       0.520900
      9 CAK        145.3270   146.2570   130.1580 ca         1 A1A       0.191400
     10 CAL        146.2900   145.9950   129.1660 ca         1 A1A      -0.107000
     11 CAM        147.6100   146.4580   129.2990 ca         1 A1A      -0.075000
     12 CAN        147.9790   147.1920   130.4350 ca         1 A1A      -0.136000
     13 CAO        147.0270   147.4600   131.4320 ca         1 A1A      -0.040000
     14 CAP        145.7020   146.9910   131.2910 ca         1 A1A      -0.204600
     15 CAQ        144.6820   147.2620   132.3310 c          1 A1A       0.578600
     16 CAS        141.7570   145.4940   130.6900 c3         1 A1A      -0.139400
     17 NAH        143.4080   146.7580   132.0770 n          1 A1A      -0.265500
     18 NAJ        144.0370   145.7600   129.9490 nd         1 A1A      -0.639100
     19 H1         141.7560   148.8020   130.9280 hc         1 A1A       0.048700
     20 H2         141.1160   150.0590   131.9900 hc         1 A1A       0.048700
     21 H3         142.8440   149.6900   132.0100 hc         1 A1A       0.048700
     22 H4         140.0960   149.3630   134.0290 ha         1 A1A       0.116000
     23 H5         139.7450   147.7040   135.8410 ha         1 A1A       0.116000
     24 H6         141.1070   145.6180   135.9060 ha         1 A1A       0.119000
     25 H7         142.7940   145.1800   134.1330 ha         1 A1A       0.124000
     26 H8         146.0100   145.4270   128.2830 ha         1 A1A       0.132000
     27 H9         148.3430   146.2480   128.5230 ha         1 A1A       0.116000
     28 H10        148.9990   147.5540   130.5450 ha         1 A1A       0.119000
     29 H11        147.3230   148.0300   132.3110 ha         1 A1A       0.135000
     30 H12        141.6770   144.9560   129.7380 hc         1 A1A       0.067367
     31 H13        141.4780   144.7950   131.4860 hc         1 A1A       0.067367
     32 H14        141.0220   146.3060   130.6700 hc         1 A1A       0.067367
     33 OAR        144.9460   147.8910   133.3490 o          1 A1A      -0.521000
@<TRIPOS>BOND
     1     1     2 1   
     2     1    19 1   
     3     1    20 1   
     4     1    21 1   
     5     2     3 ar  
     6     2     7 ar  
     7     3     4 ar  
     8     3    22 1   
     9     4     5 ar  
    10     4    23 1   
    11     5     6 ar  
    12     5    24 1   
    13     6     7 ar  
    14     6    25 1   
    15     7    17 1   
    16     8    16 1   
    17     8    17 1   
    18     8    18 2   
    19     9    10 ar  
    20     9    14 ar  
    21     9    18 1   
    22    10    11 ar  
    23    10    26 1   
    24    11    12 ar  
    25    11    27 1   
    26    12    13 ar  
    27    12    28 1   
    28    13    14 ar  
    29    13    29 1   
    30    14    15 1   
    31    15    17 1   
    32    15    33 2   
    33    16    30 1   
    34    16    31 1   
    35    16    32 1   
@<TRIPOS>SUBSTRUCTURE
     1 A1A         1 TEMP              0 ****  ****    0 ROOT
