@<TRIPOS>MOLECULE
A1A
   26    26     1     0     0
SMALL
abcg2


@<TRIPOS>ATOM
      1 C10         89.3280   -30.4930    30.1210 ca         1 A1A      -0.211000
      2 C11         89.2640   -29.6850    28.9910 ca         1 A1A      -0.105000
      3 C2          87.6070   -26.7140    32.9410 c3         1 A1A       0.003500
      4 C3          86.8680   -26.4300    34.2850 c          1 A1A       0.695000
      5 C5          88.0520   -28.1690    32.8460 c3         1 A1A      -0.019100
      6 C6          88.4920   -28.6610    31.4890 ca         1 A1A      -0.060300
      7 C7          88.4450   -27.8820    30.3410 ca         1 A1A      -0.069000
      8 C8          88.9400   -29.9890    31.3580 ca         1 A1A       0.115100
      9 C9          88.8220   -28.3790    29.0960 ca         1 A1A      -0.155000
     10 N1          88.7280   -25.8230    32.6700 n8         1 A1A      -1.004200
     11 O23         88.9630   -30.7130    32.4980 os         1 A1A      -0.332100
     12 H1          89.6770   -31.5120    30.0170 ha         1 A1A       0.097000
     13 H2          89.5670   -30.0880    28.0330 ha         1 A1A       0.090000
     14 H3          86.8520   -26.5410    32.1600 h1         1 A1A       0.040700
     15 H4          89.3340   -32.4410    33.4600 h1         1 A1A       0.028367
     16 H5          88.7790   -32.6670    31.7930 h1         1 A1A       0.028367
     17 H6          90.4430   -32.1320    32.1130 h1         1 A1A       0.028367
     18 H9          87.2330   -28.7980    33.1980 hc         1 A1A       0.063200
     19 H10         88.8640   -28.3280    33.5670 hc         1 A1A       0.063200
     20 H11         88.1260   -26.8520    30.4210 ha         1 A1A       0.142000
     21 H12         88.7690   -27.7440    28.2220 ha         1 A1A       0.099000
     22 H13         88.4780   -24.9050    33.0180 hn         1 A1A       0.383500
     23 H14         89.5100   -26.1070    33.2530 hn         1 A1A       0.383500
     24 OXT         87.1230   -25.3460    34.8450 o          1 A1A      -0.732000
     25 O1          86.0460   -27.2880    34.6660 o          1 A1A      -0.732000
     26 C24         89.4040   -32.0530    32.4470 c3         1 A1A       0.153900
@<TRIPOS>BOND
     1     1     2 ar  
     2     1     8 ar  
     3     1    12 1   
     4     2     9 ar  
     5     2    13 1   
     6     3     4 1   
     7     3     5 1   
     8     3    10 1   
     9     3    14 1   
    10     4    24 1   
    11     4    25 1   
    12     5     6 1   
    13     5    18 1   
    14     5    19 1   
    15     6     7 ar  
    16     6     8 ar  
    17     7     9 ar  
    18     7    20 1   
    19     8    11 1   
    20     9    21 1   
    21    10    22 1   
    22    10    23 1   
    23    11    26 1   
    24    15    26 1   
    25    16    26 1   
    26    17    26 1   
@<TRIPOS>SUBSTRUCTURE
     1 A1A         1 TEMP              0 ****  ****    0 ROOT
