@<TRIPOS>MOLECULE
A1A
   33    35     1     0     0
SMALL
abcg2


@<TRIPOS>ATOM
      1 CAA        141.9160   149.2080   131.9140 c3         1 A1A      -0.050800
      2 CAB        141.6790   148.1940   132.9920 ca         1 A1A      -0.053300
      3 CAC        140.7010   148.3920   133.9630 ca         1 A1A      -0.108000
      4 CAD        140.4810   147.4600   134.9680 ca         1 A1A      -0.097000
      5 CAE        141.2420   146.3010   135.0230 ca         1 A1A      -0.109000
      6 CAF        142.2210   146.0830   134.0650 ca         1 A1A      -0.092000
      7 CAG        142.4260   147.0180   133.0630 ca         1 A1A       0.022600
      8 CAI        143.1490   146.0500   130.9420 cc         1 A1A       0.520900
      9 CAK        145.2980   146.2700   130.1850 ca         1 A1A       0.191400
     10 CAL        146.2440   145.9980   129.1870 ca         1 A1A      -0.107000
     11 CAM        147.5360   146.4580   129.3170 ca         1 A1A      -0.075000
     12 CAN        147.9210   147.2000   130.4400 ca         1 A1A      -0.136000
     13 CAO        147.0020   147.4740   131.4280 ca         1 A1A      -0.040000
     14 CAP        145.6880   147.0110   131.3060 ca         1 A1A      -0.204600
     15 CAQ        144.7050   147.2920   132.3410 c          1 A1A       0.578600
     16 CAS        141.7550   145.5410   130.7840 c3         1 A1A      -0.139400
     17 NAH        143.4400   146.7690   132.0830 n          1 A1A      -0.265500
     18 NAJ        144.0170   145.8000   130.0280 nd         1 A1A      -0.639100
     19 H1         141.7850   148.7840   130.9170 hc         1 A1A       0.048700
     20 H2         141.2220   150.0420   132.0090 hc         1 A1A       0.048700
     21 H3         142.9280   149.6140   131.9610 hc         1 A1A       0.048700
     22 H4         140.1030   149.2940   133.9300 ha         1 A1A       0.116000
     23 H5         139.7130   147.6410   135.7090 ha         1 A1A       0.116000
     24 H6         141.0770   145.5710   135.8040 ha         1 A1A       0.119000
     25 H7         142.8260   145.1860   134.0890 ha         1 A1A       0.124000
     26 H8         145.9400   145.4230   128.3210 ha         1 A1A       0.132000
     27 H9         148.2610   146.2440   128.5420 ha         1 A1A       0.116000
     28 H10        148.9380   147.5570   130.5290 ha         1 A1A       0.119000
     29 H11        147.2890   148.0470   132.3000 ha         1 A1A       0.135000
     30 H12        141.6730   145.0350   129.8270 hc         1 A1A       0.067367
     31 H13        141.4950   144.8390   131.5770 hc         1 A1A       0.067367
     32 H14        141.0240   146.3500   130.8180 hc         1 A1A       0.067367
     33 OAR        144.9220   147.9240   133.3560 o          1 A1A      -0.521000
@<TRIPOS>BOND
     1     1     2 1   
     2     1    19 1   
     3     1    20 1   
     4     1    21 1   
     5     2     3 ar  
     6     2     7 ar  
     7     3     4 ar  
     8     3    22 1   
     9     4     5 ar  
    10     4    23 1   
    11     5     6 ar  
    12     5    24 1   
    13     6     7 ar  
    14     6    25 1   
    15     7    17 1   
    16     8    16 1   
    17     8    17 1   
    18     8    18 2   
    19     9    10 ar  
    20     9    14 ar  
    21     9    18 1   
    22    10    11 ar  
    23    10    26 1   
    24    11    12 ar  
    25    11    27 1   
    26    12    13 ar  
    27    12    28 1   
    28    13    14 ar  
    29    13    29 1   
    30    14    15 1   
    31    15    17 1   
    32    15    33 2   
    33    16    30 1   
    34    16    31 1   
    35    16    32 1   
@<TRIPOS>SUBSTRUCTURE
     1 A1A         1 TEMP              0 ****  ****    0 ROOT
