@<TRIPOS>MOLECULE
A1A
   44    48     1     0     0
SMALL
abcg2


@<TRIPOS>ATOM
      1 C1          -3.8410    21.8410   -36.3490 c3         1 A1A      -0.103600
      2 C10         -2.7170    23.1860   -34.0430 c6         1 A1A       0.222900
      3 C12         -4.3150    25.1250   -31.9420 ca         1 A1A       0.125000
      4 C13         -3.8330    26.1060   -32.7950 ca         1 A1A      -0.218000
      5 C14         -3.4400    27.3600   -32.3000 ca         1 A1A       0.379900
      6 C16         -3.9430    26.7700   -30.2210 ca         1 A1A       0.372500
      7 C19         -4.7150    24.8690   -29.3510 cc         1 A1A       0.369800
      8 C2          -3.1790    21.1320   -35.1690 c6         1 A1A       0.165000
      9 C20         -4.3650    25.4780   -30.5840 ca         1 A1A      -0.265900
     10 C21         -6.9840    23.3820   -31.2380 ca         1 A1A       0.303000
     11 C22         -7.5020    24.6750   -31.2760 ca         1 A1A      -0.112000
     12 C23         -8.5950    24.9910   -30.4890 ca         1 A1A      -0.118000
     13 C24         -9.1240    23.9860   -29.7080 ca         1 A1A       0.121000
     14 C26         -8.5680    22.7200   -29.7250 ca         1 A1A       0.303900
     15 C3          -2.4150    19.9120   -35.6540 c3         1 A1A      -0.103600
     16 C4          -4.2160    20.6940   -34.1290 c6         1 A1A       0.056600
     17 C7          -5.8310    23.0140   -32.0720 cc         1 A1A       0.220000
     18 C8          -4.7090    23.8050   -32.4190 cc         1 A1A      -0.157000
     19 C9          -3.9900    23.0010   -33.2860 cd         1 A1A      -0.156300
     20 F25        -10.1880    24.2270   -28.9340 f          1 A1A      -0.168000
     21 N15         -3.4870    27.7190   -31.0310 nb         1 A1A      -0.680000
     22 N17         -4.0750    26.8420   -28.8790 na         1 A1A      -0.166100
     23 N18         -4.5330    25.7010   -28.3570 nd         1 A1A      -0.508100
     24 N27         -7.5170    22.4300   -30.4750 nb         1 A1A      -0.627000
     25 N5          -4.6710    21.8540   -33.3920 na         1 A1A       0.150800
     26 N6          -5.7830    21.8360   -32.6690 nd         1 A1A      -0.471800
     27 O11         -2.2200    21.9600   -34.5130 os         1 A1A      -0.444000
     28 H1          -4.4890    22.6680   -36.0550 hc         1 A1A       0.051033
     29 H2          -3.0850    22.2290   -37.0320 hc         1 A1A       0.051033
     30 H3          -4.4590    21.1320   -36.9000 hc         1 A1A       0.051033
     31 H4          -1.9540    23.6220   -33.3940 h1         1 A1A       0.069700
     32 H5          -2.8780    23.8970   -34.8630 h1         1 A1A       0.069700
     33 H6          -3.7760    25.9310   -33.8610 ha         1 A1A       0.122000
     34 H7          -3.0750    28.1050   -32.9980 h4         1 A1A       0.021100
     35 H8          -5.0770    23.8690   -29.1630 h4         1 A1A       0.061800
     36 H9          -7.0700    25.4250   -31.9240 ha         1 A1A       0.135000
     37 H10         -9.0270    25.9830   -30.4950 ha         1 A1A       0.139000
     38 H11         -8.9850    21.9260   -29.1140 h4         1 A1A       0.038100
     39 H12         -1.8890    19.4230   -34.8320 hc         1 A1A       0.051033
     40 H13         -3.0990    19.1880   -36.0960 hc         1 A1A       0.051033
     41 H14         -1.6850    20.1920   -36.4140 hc         1 A1A       0.051033
     42 H15         -5.0740    20.2220   -34.6070 h1         1 A1A       0.080700
     43 H16         -3.7750    19.9790   -33.4300 h1         1 A1A       0.080700
     44 H17         -3.8580    27.6230   -28.2800 hn         1 A1A       0.386000
@<TRIPOS>BOND
     1     1     8 1   
     2     1    28 1   
     3     1    29 1   
     4     1    30 1   
     5     2    19 1   
     6     2    27 1   
     7     2    31 1   
     8     2    32 1   
     9     3     4 ar  
    10     3     9 ar  
    11     3    18 1   
    12     4     5 ar  
    13     4    33 1   
    14     5    21 ar  
    15     5    34 1   
    16     6     9 ar  
    17     6    21 ar  
    18     6    22 1   
    19     7     9 1   
    20     7    23 2   
    21     7    35 1   
    22     8    15 1   
    23     8    16 1   
    24     8    27 1   
    25    10    11 ar  
    26    10    17 1   
    27    10    24 ar  
    28    11    12 ar  
    29    11    36 1   
    30    12    13 ar  
    31    12    37 1   
    32    13    14 ar  
    33    13    20 1   
    34    14    24 ar  
    35    14    38 1   
    36    15    39 1   
    37    15    40 1   
    38    15    41 1   
    39    16    25 1   
    40    16    42 1   
    41    16    43 1   
    42    17    18 1   
    43    17    26 2   
    44    18    19 2   
    45    19    25 1   
    46    22    23 1   
    47    22    44 1   
    48    25    26 1   
@<TRIPOS>SUBSTRUCTURE
     1 A1A         1 TEMP              0 ****  ****    0 ROOT
