@<TRIPOS>MOLECULE
A1A
   86    90     1     0     0
SMALL
abcg2


@<TRIPOS>ATOM
      1 N1           4.4750   -10.8200    45.5260 n          1 A1A      -0.435800
      2 C7           2.3370   -12.3190    41.6840 ca         1 A1A       0.162100
      3 C8           2.0300   -13.2470    40.6930 ca         1 A1A      -0.236000
      4 N2           5.1150   -13.7380    49.7510 no         1 A1A       0.694200
      5 C9           1.8670   -14.5850    41.0260 ca         1 A1A      -0.050000
      6 O1           4.9670   -12.5470    44.1910 o          1 A1A      -0.580100
      7 C1           3.6960    -9.6580    45.9290 c5         1 A1A       0.035700
      8 C5           2.7000   -11.7600    44.1290 c3         1 A1A      -0.103100
      9 C6           2.4600   -12.7310    43.0140 ca         1 A1A      -0.097300
     10 C4           4.1390   -11.7510    44.5970 c          1 A1A       0.621100
     11 C3           5.8740   -10.7130    45.9000 c5         1 A1A       0.342400
     12 C2           4.7420    -8.7850    46.5980 c          1 A1A       0.559000
     13 N            5.9180    -9.4310    46.5620 n          1 A1A      -0.416800
     14 C            2.5330    -9.9280    46.8740 c3         1 A1A      -0.103100
     15 O            4.5270    -7.6920    47.0840 o          1 A1A      -0.576000
     16 C10          2.0120   -15.0400    42.3270 ca         1 A1A      -0.160300
     17 C11          2.3190   -14.0850    43.2910 ca         1 A1A       0.205100
     18 C12          1.7910   -15.5210    45.0540 ca         1 A1A       0.147100
     19 C13          1.4330   -16.5450    44.1780 ca         1 A1A      -0.162300
     20 C14          0.6960   -17.5910    44.7090 ca         1 A1A      -0.081000
     21 C15          0.3420   -17.6250    46.0520 ca         1 A1A      -0.228000
     22 C16          0.7390   -16.5940    46.8980 ca         1 A1A       0.144100
     23 C17          1.4900   -15.5160    46.4100 ca         1 A1A      -0.020300
     24 C18          1.9060   -14.4040    47.3230 c3         1 A1A      -0.178100
     25 C19          0.8290   -13.3010    47.5000 c          1 A1A       0.725000
     26 C20         -0.2870   -17.6180    48.7800 c3         1 A1A       0.155900
     27 C21          1.9360   -16.4980    42.7440 c6         1 A1A       0.078600
     28 C22          3.3570   -17.0950    42.6990 c3         1 A1A      -0.076600
     29 C23          1.0420   -17.3040    41.8040 c3         1 A1A      -0.076600
     30 C24          2.3310   -10.5140    40.1390 c3         1 A1A       0.156900
     31 C25          6.3400   -11.8320    46.8120 ca         1 A1A      -0.139300
     32 C26          5.5200   -12.2710    47.8430 ca         1 A1A      -0.023000
     33 C27          5.9730   -13.2720    48.6760 ca         1 A1A      -0.183200
     34 C28          7.2320   -13.8480    48.5340 ca         1 A1A      -0.144000
     35 C29          8.0600   -13.3900    47.5280 ca         1 A1A       0.079100
     36 C30          7.6090   -12.3740    46.6530 ca         1 A1A       0.194100
     37 C31          8.7070   -12.7150    44.5780 c3         1 A1A       0.024600
     38 C32         10.1460   -12.5270    44.0670 c          1 A1A       0.725000
     39 C33          9.8310   -14.8320    48.1570 c3         1 A1A       0.148900
     40 C34          7.1640    -8.9020    47.0550 c3         1 A1A       0.097300
     41 O10          9.3080   -13.8240    47.3130 os         1 A1A      -0.293100
     42 O11          4.0990   -13.1220    49.9770 o          1 A1A      -0.409000
     43 O12          5.4600   -14.7160    50.3730 o          1 A1A      -0.409000
     44 O2           2.4940   -14.4490    44.5880 os         1 A1A      -0.208200
     45 O7           8.4410   -11.8890    45.7200 os         1 A1A      -0.344100
     46 O8          10.3880   -13.1840    43.0360 o          1 A1A      -0.724000
     47 O9          10.9010   -11.7740    44.6970 o          1 A1A      -0.724000
     48 H7           1.9170   -12.9500    39.6600 ha         1 A1A       0.101000
     49 H8           1.6310   -15.2790    40.2300 ha         1 A1A       0.096000
     50 H3           3.3300    -9.1180    45.0490 h1         1 A1A       0.062700
     51 H6           2.3980   -10.7530    43.8340 hc         1 A1A       0.097700
     52 H5           2.0640   -12.0270    44.9780 hc         1 A1A       0.097700
     53 H4           6.5050   -10.6890    45.0070 h2         1 A1A       0.098700
     54 H2           2.0980    -8.9790    47.1860 hc         1 A1A       0.065700
     55 H            1.7460   -10.5040    46.3940 hc         1 A1A       0.065700
     56 H1           2.8530   -10.4640    47.7660 hc         1 A1A       0.065700
     57 H9           0.3840   -18.4150    44.0820 ha         1 A1A       0.088000
     58 H10         -0.2370   -18.4620    46.4150 ha         1 A1A       0.095000
     59 H11          2.1890   -14.8010    48.2980 hc         1 A1A       0.049200
     60 H12          2.8000   -13.9100    46.9310 hc         1 A1A       0.049200
     61 H14         -0.4130   -17.3800    49.8340 h1         1 A1A       0.024367
     62 H15         -1.2750   -17.7430    48.3300 h1         1 A1A       0.024367
     63 H16          0.2580   -18.5620    48.6970 h1         1 A1A       0.024367
     64 H17          4.0480   -16.5490    43.3430 hc         1 A1A       0.031700
     65 H18          3.3420   -18.1360    43.0250 hc         1 A1A       0.031700
     66 H19          3.7480   -17.0630    41.6800 hc         1 A1A       0.031700
     67 H20          1.0220   -18.3550    42.0910 hc         1 A1A       0.031700
     68 H21          0.0180   -16.9300    41.7980 hc         1 A1A       0.031700
     69 H22          1.4230   -17.2750    40.7840 hc         1 A1A       0.031700
     70 H23          2.4980    -9.4410    40.1840 h1         1 A1A       0.030700
     71 H24          3.0430   -10.9520    39.4350 h1         1 A1A       0.030700
     72 H25          1.3170   -10.6970    39.7740 h1         1 A1A       0.030700
     73 H26          4.5350   -11.8490    47.9750 ha         1 A1A       0.165000
     74 H27          7.5550   -14.6200    49.2170 ha         1 A1A       0.136000
     75 H29          7.9960   -12.4520    43.7880 h1         1 A1A       0.032700
     76 H28          8.5430   -13.7710    44.8120 h1         1 A1A       0.032700
     77 H31         10.8420   -15.0260    47.8110 h1         1 A1A       0.033367
     78 H32          9.8710   -14.5070    49.2000 h1         1 A1A       0.033367
     79 H33          9.2510   -15.7560    48.0940 h1         1 A1A       0.033367
     80 H34          6.9860    -7.9280    47.5000 h1         1 A1A       0.046700
     81 H35          7.5910    -9.5570    47.8150 h1         1 A1A       0.046700
     82 H36          7.8850    -8.7920    46.2440 h1         1 A1A       0.046700
     83 O5           0.4250   -16.5420    48.2090 os         1 A1A      -0.306100
     84 O4           0.7890   -12.7450    48.6130 o          1 A1A      -0.731500
     85 O3           0.1260   -13.0440    46.5030 o          1 A1A      -0.731500
     86 O6           2.5160   -11.0040    41.4520 os         1 A1A      -0.339100
@<TRIPOS>BOND
     1     1     7 1   
     2     1    10 1   
     3     1    11 1   
     4     2     3 ar  
     5     2     9 ar  
     6     2    86 1   
     7     3     5 ar  
     8     3    48 1   
     9     4    33 1   
    10     4    42 1   
    11     4    43 1   
    12     5    16 ar  
    13     5    49 1   
    14     6    10 2   
    15     7    12 1   
    16     7    14 1   
    17     7    50 1   
    18     8     9 1   
    19     8    10 1   
    20     8    51 1   
    21     8    52 1   
    22     9    17 ar  
    23    11    13 1   
    24    11    31 1   
    25    11    53 1   
    26    12    13 1   
    27    12    15 2   
    28    13    40 1   
    29    14    54 1   
    30    14    55 1   
    31    14    56 1   
    32    16    17 ar  
    33    16    27 1   
    34    17    44 1   
    35    18    19 ar  
    36    18    23 ar  
    37    18    44 1   
    38    19    20 ar  
    39    19    27 1   
    40    20    21 ar  
    41    20    57 1   
    42    21    22 ar  
    43    21    58 1   
    44    22    23 ar  
    45    22    83 1   
    46    23    24 1   
    47    24    25 1   
    48    24    59 1   
    49    24    60 1   
    50    25    84 1   
    51    25    85 1   
    52    26    61 1   
    53    26    62 1   
    54    26    63 1   
    55    26    83 1   
    56    27    28 1   
    57    27    29 1   
    58    28    64 1   
    59    28    65 1   
    60    28    66 1   
    61    29    67 1   
    62    29    68 1   
    63    29    69 1   
    64    30    70 1   
    65    30    71 1   
    66    30    72 1   
    67    30    86 1   
    68    31    32 ar  
    69    31    36 ar  
    70    32    33 ar  
    71    32    73 1   
    72    33    34 ar  
    73    34    35 ar  
    74    34    74 1   
    75    35    36 ar  
    76    35    41 1   
    77    36    45 1   
    78    37    38 1   
    79    37    45 1   
    80    37    75 1   
    81    37    76 1   
    82    38    46 1   
    83    38    47 1   
    84    39    41 1   
    85    39    77 1   
    86    39    78 1   
    87    39    79 1   
    88    40    80 1   
    89    40    81 1   
    90    40    82 1   
@<TRIPOS>SUBSTRUCTURE
     1 A1A         1 TEMP              0 ****  ****    0 ROOT
