@<TRIPOS>MOLECULE
A1A
   37    37     1     0     0
SMALL
abcg2


@<TRIPOS>ATOM
      1 N1         -59.0380    20.3920     3.1210 n3         1 A1A      -0.740100
      2 C4         -58.6610    21.6380     2.4820 c3         1 A1A       0.197300
      3 O3         -52.5200    17.6600     3.3280 o          1 A1A      -0.704033
      4 S1         -52.3080    18.7080     2.3080 s6         1 A1A       1.324100
      5 O1         -51.1490    19.5730     2.6030 o          1 A1A      -0.704033
      6 O2         -52.3010    18.1760     0.9290 o          1 A1A      -0.704033
      7 C1         -53.7540    19.7820     2.4020 c3         1 A1A      -0.375400
      8 C2         -55.0500    19.0600     2.0190 c3         1 A1A       0.220800
      9 N2         -56.2740    19.8050     2.2470 n3         1 A1A      -0.740100
     10 C5         -56.5690    20.0290     3.6520 c3         1 A1A       0.171800
     11 C3         -58.0440    19.8370     4.0220 c3         1 A1A       0.171800
     12 C8         -56.3490    21.0360     1.4780 c3         1 A1A       0.197300
     13 C19        -57.7700    21.5250     1.2410 c3         1 A1A      -0.112400
     14 C7         -59.6610    19.4080     2.2540 c3         1 A1A       0.220800
     15 C6         -60.8510    19.9840     1.5010 c3         1 A1A      -0.375400
     16 S2         -61.8980    18.7180     0.7530 s6         1 A1A       1.324100
     17 O5         -61.0010    17.8600    -0.0470 o          1 A1A      -0.704033
     18 O6         -62.8600    19.4750    -0.0730 o          1 A1A      -0.704033
     19 O4         -62.5320    18.0030     1.8800 o          1 A1A      -0.704033
     20 H2         -58.1830    22.2750     3.2320 h1         1 A1A       0.022200
     21 H3         -59.5700    22.1730     2.1920 h1         1 A1A       0.022200
     22 H4         -53.8000    20.1620     3.4260 h1         1 A1A       0.062950
     23 H5         -53.5680    20.6320     1.7420 h1         1 A1A       0.062950
     24 H6         -55.0040    18.7900     0.9620 h1         1 A1A       0.053950
     25 H7         -55.1170    18.1250     2.5790 h1         1 A1A       0.053950
     26 H9         -55.9940    19.3310     4.2660 h1         1 A1A       0.026200
     27 H10        -56.2390    21.0320     3.9640 h1         1 A1A       0.026200
     28 H11        -58.1740    20.2600     5.0270 h1         1 A1A       0.026200
     29 H12        -58.2450    18.7680     4.1200 h1         1 A1A       0.026200
     30 H13        -55.8820    20.8650     0.5040 h1         1 A1A       0.022200
     31 H14        -55.7700    21.8420     1.9590 h1         1 A1A       0.022200
     32 H15        -57.7110    22.5140     0.7770 hc         1 A1A       0.038700
     33 H16        -58.2550    20.8780     0.5060 hc         1 A1A       0.038700
     34 H17        -60.0180    18.5940     2.8910 h1         1 A1A       0.053950
     35 H18        -58.9640    18.9570     1.5350 h1         1 A1A       0.053950
     36 H19        -60.5380    20.6450     0.6910 h1         1 A1A       0.062950
     37 H20        -61.4880    20.5610     2.1750 h1         1 A1A       0.062950
@<TRIPOS>BOND
     1     1     2 1   
     2     1    11 1   
     3     1    14 1   
     4     2    13 1   
     5     2    20 1   
     6     2    21 1   
     7     3     4 1   
     8     4     5 1   
     9     4     6 1   
    10     4     7 1   
    11     7     8 1   
    12     7    22 1   
    13     7    23 1   
    14     8     9 1   
    15     8    24 1   
    16     8    25 1   
    17     9    10 1   
    18     9    12 1   
    19    10    11 1   
    20    10    26 1   
    21    10    27 1   
    22    11    28 1   
    23    11    29 1   
    24    12    13 1   
    25    12    30 1   
    26    12    31 1   
    27    13    32 1   
    28    13    33 1   
    29    14    15 1   
    30    14    34 1   
    31    14    35 1   
    32    15    16 1   
    33    15    36 1   
    34    15    37 1   
    35    16    17 1   
    36    16    18 1   
    37    16    19 1   
@<TRIPOS>SUBSTRUCTURE
     1 A1A         1 TEMP              0 ****  ****    0 ROOT
