@<TRIPOS>MOLECULE
A1A
   25    25     1     0     0
SMALL
abcg2


@<TRIPOS>ATOM
      1 C11         89.0550   -29.6990    28.8160 ca         1 A1A      -0.139000
      2 C10         89.0040   -30.4840    29.9610 ca         1 A1A      -0.123000
      3 C2          87.5340   -26.5440    32.6890 c3         1 A1A       0.005500
      4 C23         88.5730   -30.8350    32.4010 c3         1 A1A      -0.041800
      5 C3          86.7920   -26.2000    34.0170 c          1 A1A       0.694000
      6 C5          87.8560   -28.0320    32.6120 c3         1 A1A      -0.027100
      7 C6          88.2990   -28.5860    31.2800 ca         1 A1A      -0.034300
      8 C7          88.3560   -27.8100    30.1250 ca         1 A1A      -0.092000
      9 C8          88.6290   -29.9500    31.1900 ca         1 A1A      -0.095300
     10 C9          88.7270   -28.3560    28.9020 ca         1 A1A      -0.126000
     11 N1          88.7290   -25.7520    32.4380 n8         1 A1A      -1.000200
     12 OXT         85.8740   -26.9730    34.3590 o          1 A1A      -0.732000
     13 O1          87.1460   -25.1600    34.6060 o          1 A1A      -0.732000
     14 H1          89.3490   -30.1370    27.8700 ha         1 A1A       0.091000
     15 H2          89.2580   -31.5360    29.9000 ha         1 A1A       0.090000
     16 H3          86.8120   -26.3180    31.8900 h1         1 A1A       0.042700
     17 H4          89.2460   -30.4900    33.1890 hc         1 A1A       0.035700
     18 H5          87.5720   -30.8580    32.8380 hc         1 A1A       0.035700
     19 H6          88.8500   -31.8590    32.1550 hc         1 A1A       0.035700
     20 H7          86.9690   -28.5840    32.9330 hc         1 A1A       0.056700
     21 H8          88.6200   -28.2620    33.3660 hc         1 A1A       0.056700
     22 H9          88.1290   -26.7550    30.1820 ha         1 A1A       0.138000
     23 H10         88.7620   -27.7270    28.0210 ha         1 A1A       0.095000
     24 H11         88.5300   -24.7980    32.7140 hn         1 A1A       0.383500
     25 H12         89.4520   -26.0530    33.0830 hn         1 A1A       0.383500
@<TRIPOS>BOND
     1     1     2 ar  
     2     1    10 ar  
     3     1    14 1   
     4     2     9 ar  
     5     2    15 1   
     6     3     5 1   
     7     3     6 1   
     8     3    11 1   
     9     3    16 1   
    10     4     9 1   
    11     4    17 1   
    12     4    18 1   
    13     4    19 1   
    14     5    12 1   
    15     5    13 1   
    16     6     7 1   
    17     6    20 1   
    18     6    21 1   
    19     7     8 ar  
    20     7     9 ar  
    21     8    10 ar  
    22     8    22 1   
    23    10    23 1   
    24    11    24 1   
    25    11    25 1   
@<TRIPOS>SUBSTRUCTURE
     1 A1A         1 TEMP              0 ****  ****    0 ROOT
