@<TRIPOS>MOLECULE
A1A
   44    48     1     0     0
SMALL
No Charge or Current Charge


@<TRIPOS>ATOM
      1 C1          -3.6640    21.8150   -36.4720 c3         1 A1A      -0.103600
      2 C10         -2.7900    23.3080   -34.0410 c6         1 A1A       0.222900
      3 C12         -4.3980    25.0820   -32.0100 ca         1 A1A       0.125000
      4 C13         -3.8740    26.0580   -32.8800 ca         1 A1A      -0.218000
      5 C14         -3.4610    27.3040   -32.3670 ca         1 A1A       0.379900
      6 C16         -4.0180    26.6810   -30.2300 ca         1 A1A       0.372500
      7 C19         -4.8000    24.7190   -29.4720 cc         1 A1A       0.369800
      8 C2          -3.1240    21.1300   -35.1780 c6         1 A1A       0.165000
      9 C20         -4.4450    25.4560   -30.6590 ca         1 A1A      -0.265900
     10 C21         -7.0490    23.3710   -31.1960 ca         1 A1A       0.303000
     11 C22         -7.5310    24.7010   -31.2600 ca         1 A1A      -0.112000
     12 C23         -8.5540    25.1220   -30.3910 ca         1 A1A      -0.118000
     13 C24         -9.0650    24.1950   -29.4730 ca         1 A1A       0.121000
     14 C26         -8.5370    22.8890   -29.4570 ca         1 A1A       0.303900
     15 C3          -2.2480    19.9210   -35.6000 c3         1 A1A      -0.103600
     16 C4          -4.2730    20.6730   -34.2220 c6         1 A1A       0.056600
     17 C7          -5.9310    22.9420   -32.0680 cc         1 A1A       0.220000
     18 C8          -4.8680    23.7810   -32.5030 cc         1 A1A      -0.157000
     19 C9          -4.1110    23.0250   -33.3570 cd         1 A1A      -0.156300
     20 F25        -10.0500    24.5540   -28.6170 f          1 A1A      -0.168000
     21 N15         -3.5280    27.6240   -31.0520 nb         1 A1A      -0.680000
     22 N17         -4.1670    26.6660   -28.8620 na         1 A1A      -0.166100
     23 N18         -4.6420    25.4480   -28.3600 nd         1 A1A      -0.508100
     24 N27         -7.5480    22.4800   -30.2920 nb         1 A1A      -0.627000
     25 N5          -4.7800    21.8140   -33.4400 na         1 A1A       0.150800
     26 N6          -5.9090    21.7470   -32.6470 nd         1 A1A      -0.471800
     27 O11         -2.2220    22.0500   -34.4990 os         1 A1A      -0.444000
     28 H1          -4.3750    22.6190   -36.2480 hc         1 A1A       0.051033
     29 H2          -2.8490    22.2430   -37.0670 hc         1 A1A       0.051033
     30 H3          -4.1920    21.0940   -37.1080 hc         1 A1A       0.051033
     31 H4          -2.0820    23.7870   -33.3490 h1         1 A1A       0.069700
     32 H5          -2.9320    23.9760   -34.9020 h1         1 A1A       0.069700
     33 H6          -3.8200    25.8830   -33.9490 ha         1 A1A       0.122000
     34 H7          -3.0690    28.0720   -33.0330 h4         1 A1A       0.021100
     35 H8          -5.1260    23.6960   -29.3420 h4         1 A1A       0.061800
     36 H9          -7.1220    25.3980   -31.9870 ha         1 A1A       0.135000
     37 H10         -8.9400    26.1380   -30.4280 ha         1 A1A       0.139000
     38 H11         -8.9140    22.1490   -28.7520 h4         1 A1A       0.038100
     39 H12         -1.7950    19.4340   -34.7270 hc         1 A1A       0.051033
     40 H13         -2.8390    19.1650   -36.1300 hc         1 A1A       0.051033
     41 H14         -1.4330    20.2310   -36.2650 hc         1 A1A       0.051033
     42 H15         -5.0940    20.2240   -34.7950 h1         1 A1A       0.080700
     43 H16         -3.8970    19.9190   -33.5190 h1         1 A1A       0.080700
     44 H17         -3.9440    27.4470   -28.2520 hn         1 A1A       0.386000
@<TRIPOS>BOND
     1     1     8 1   
     2     1    28 1   
     3     1    29 1   
     4     1    30 1   
     5     2    19 1   
     6     2    27 1   
     7     2    31 1   
     8     2    32 1   
     9     3     4 ar  
    10     3     9 ar  
    11     3    18 1   
    12     4     5 ar  
    13     4    33 1   
    14     5    21 ar  
    15     5    34 1   
    16     6     9 ar  
    17     6    21 ar  
    18     6    22 1   
    19     7     9 1   
    20     7    23 2   
    21     7    35 1   
    22     8    15 1   
    23     8    16 1   
    24     8    27 1   
    25    10    11 ar  
    26    10    17 1   
    27    10    24 ar  
    28    11    12 ar  
    29    11    36 1   
    30    12    13 ar  
    31    12    37 1   
    32    13    14 ar  
    33    13    20 1   
    34    14    24 ar  
    35    14    38 1   
    36    15    39 1   
    37    15    40 1   
    38    15    41 1   
    39    16    25 1   
    40    16    42 1   
    41    16    43 1   
    42    17    18 1   
    43    17    26 2   
    44    18    19 2   
    45    19    25 1   
    46    22    23 1   
    47    22    44 1   
    48    25    26 1   
@<TRIPOS>SUBSTRUCTURE
     1 A1A         1 TEMP              0 ****  ****    0 ROOT
