@<TRIPOS>MOLECULE
A1A
   34    37     1     0     0
SMALL
abcg2


@<TRIPOS>ATOM
      1 C1         -16.8250    36.9160    19.2070 c3         1 A1A       0.067900
      2 C10        -21.1400    42.6310    17.4060 ca         1 A1A       0.115000
      3 C12        -20.8430    42.0080    18.6050 ca         1 A1A       0.300900
      4 C14        -16.1830    40.8850    16.2850 ca         1 A1A       0.087000
      5 C15        -15.5160    40.5170    15.1210 ca         1 A1A      -0.199000
      6 C16        -14.9630    41.4860    14.2800 ca         1 A1A       0.355900
      7 C18        -15.6520    43.1330    15.6160 ca         1 A1A       0.365500
      8 C20        -16.4910    44.3660    17.2640 cc         1 A1A      -0.159100
      9 C21        -16.7680    43.0740    17.6040 cd         1 A1A      -0.226200
     10 C22        -16.2450    42.2580    16.5570 ca         1 A1A      -0.128800
     11 C3         -16.1630    38.7400    17.6420 cc         1 A1A      -0.157000
     12 C4         -16.7710    39.8860    17.1750 cd         1 A1A      -0.148000
     13 C5         -18.0450    39.8670    17.7890 cd         1 A1A       0.211000
     14 C7         -19.1480    40.8230    17.6250 ca         1 A1A       0.311000
     15 C8         -19.4180    41.3870    16.3800 ca         1 A1A      -0.108000
     16 C9         -20.4330    42.3190    16.2640 ca         1 A1A      -0.119000
     17 N13        -19.8610    41.1250    18.7070 nb         1 A1A      -0.629000
     18 N17        -15.0240    42.7910    14.5020 nb         1 A1A      -0.683000
     19 N19        -15.8260    44.4030    16.0690 na         1 A1A      -0.328400
     20 N2         -17.0370    38.1380    18.4630 na         1 A1A       0.139800
     21 N6         -18.1790    38.8020    18.5630 nc         1 A1A      -0.481800
     22 H1         -17.7380    36.6800    19.7430 h1         1 A1A       0.060700
     23 H2         -16.5840    36.0980    18.5320 h1         1 A1A       0.060700
     24 H3         -16.0130    37.0410    19.9210 h1         1 A1A       0.060700
     25 H4         -21.4080    42.2400    19.5020 h4         1 A1A       0.036100
     26 H5         -15.4360    39.4740    14.8450 ha         1 A1A       0.120000
     27 H6         -14.4530    41.1740    13.3760 h4         1 A1A       0.017100
     28 H7         -16.7210    45.2780    17.7900 h4         1 A1A       0.216000
     29 H8         -17.2800    42.7570    18.4980 ha         1 A1A       0.217000
     30 H9         -15.1750    38.3430    17.4670 h4         1 A1A       0.159000
     31 H10        -18.8450    41.1000    15.5090 ha         1 A1A       0.137000
     32 H11        -20.6680    42.7820    15.3150 ha         1 A1A       0.137000
     33 H12        -15.5000    45.2360    15.6070 hn         1 A1A       0.360000
     34 F11        -22.1190    43.5410    17.3610 f          1 A1A      -0.171000
@<TRIPOS>BOND
     1     1    20 1   
     2     1    22 1   
     3     1    23 1   
     4     1    24 1   
     5     2     3 ar  
     6     2    16 ar  
     7     2    34 1   
     8     3    17 ar  
     9     3    25 1   
    10     4     5 ar  
    11     4    10 ar  
    12     4    12 1   
    13     5     6 ar  
    14     5    26 1   
    15     6    18 ar  
    16     6    27 1   
    17     7    10 ar  
    18     7    18 ar  
    19     7    19 1   
    20     8     9 2   
    21     8    19 1   
    22     8    28 1   
    23     9    10 1   
    24     9    29 1   
    25    11    12 2   
    26    11    20 1   
    27    11    30 1   
    28    12    13 1   
    29    13    14 1   
    30    13    21 2   
    31    14    15 ar  
    32    14    17 ar  
    33    15    16 ar  
    34    15    31 1   
    35    16    32 1   
    36    19    33 1   
    37    20    21 1   
@<TRIPOS>SUBSTRUCTURE
     1 A1A         1 TEMP              0 ****  ****    0 ROOT
