@<TRIPOS>MOLECULE
A1A
   63    65     1     0     0
SMALL
abcg2


@<TRIPOS>ATOM
      1 C11        -14.6500     4.5320    22.2380 c          1 A1A       0.653100
      2 C13        -18.1060     5.5350    21.4650 c6         1 A1A       0.083000
      3 C14        -11.2910     2.9770    24.0970 ca         1 A1A      -0.045000
      4 C15        -11.8830     5.2850    24.2550 ca         1 A1A      -0.045000
      5 C17        -16.8780     7.6040    21.5950 c          1 A1A       0.491000
      6 S01         -8.2140     5.7040    22.5670 ss         1 A1A      -0.577000
      7 O02        -11.0170     5.8000    20.9670 o          1 A1A      -0.585100
      8 O05        -14.8630     3.4810    22.8090 o          1 A1A      -0.616100
      9 O06        -14.5680     7.2480    21.2830 o          1 A1A      -0.482000
     10 O07        -16.7140     8.8080    21.5950 o          1 A1A      -0.505000
     11 O          -10.3000     4.1760    27.3600 oh         1 A1A      -0.525100
     12 N01         -7.7090     3.0000    22.3520 n7         1 A1A      -0.817400
     13 N02        -10.1940     3.6880    20.9630 ns         1 A1A      -0.490900
     14 N03        -13.4440     4.9070    21.7950 ns         1 A1A      -0.484900
     15 N04        -15.7360     5.4170    21.9940 n          1 A1A      -0.388400
     16 N05        -18.0590     6.9810    21.5690 n          1 A1A      -0.405800
     17 C01         -7.8350     4.1910    21.5730 c6         1 A1A       0.348500
     18 C02         -8.8800     3.9880    20.4680 c3         1 A1A      -0.006300
     19 C03         -8.3750     2.8590    19.5940 c          1 A1A       0.593900
     20 C07         -6.9370     3.1340    23.5940 c6         1 A1A       0.064700
     21 C04         -6.0010     4.3120    23.4590 c2         1 A1A      -0.115400
     22 C05         -6.6780     5.6460    23.5780 c6         1 A1A       0.124800
     23 C06        -11.1190     4.6200    21.2500 c          1 A1A       0.603100
     24 C08         -4.7000     4.2160    23.2020 c2         1 A1A      -0.291000
     25 CA         -12.2960     4.0860    22.0650 c3         1 A1A       0.099000
     26 C09         -6.2100     1.8280    24.0120 c          1 A1A       0.728000
     27 C10        -11.8460     4.1110    23.5140 ca         1 A1A      -0.152300
     28 C12        -17.0640     4.9190    22.3580 c6         1 A1A       0.089000
     29 C16        -15.6090     6.7180    21.6050 c          1 A1A       0.488000
     30 C19        -19.2940     7.7340    21.4100 c3         1 A1A       0.101000
     31 C20        -10.7740     3.0080    25.3820 ca         1 A1A      -0.170000
     32 C21        -11.3790     5.3300    25.5450 ca         1 A1A      -0.170000
     33 C22        -10.8130     4.1920    26.1160 ca         1 A1A       0.151100
     34 C23        -19.7040     7.8920    19.9540 c3         1 A1A      -0.117100
     35 H1         -19.0860     5.1970    21.7970 h1         1 A1A       0.056700
     36 H2         -17.9770     5.2040    20.4300 h1         1 A1A       0.056700
     37 H3         -11.2580     2.0470    23.5410 ha         1 A1A       0.115000
     38 H4         -12.3100     6.1860    23.8310 ha         1 A1A       0.115000
     39 H6         -10.3870     5.0420    27.7750 ho         1 A1A       0.457000
     40 H9         -10.4230     2.7170    21.1140 hn         1 A1A       0.332500
     41 H10        -13.3160     5.8260    21.3900 hn         1 A1A       0.376500
     42 H11         -6.8840     4.4060    21.0800 h2         1 A1A       0.081700
     43 H12         -8.9060     4.8910    19.8490 h1         1 A1A       0.098700
     44 H13         -7.3510     3.0150    19.2160 h4         1 A1A       0.006200
     45 H14         -7.6240     3.3870    24.4140 h1         1 A1A       0.038700
     46 H16         -6.0120     6.4570    23.2850 h1         1 A1A       0.058700
     47 H17         -6.9880     5.8160    24.6120 h1         1 A1A       0.058700
     48 H18         -4.0870     5.1000    23.0760 ha         1 A1A       0.165500
     49 H19         -4.2000     3.2610    23.1100 ha         1 A1A       0.165500
     50 H21        -12.5050     3.0520    21.7750 h1         1 A1A       0.078700
     51 H22        -17.2750     5.1360    23.4070 h1         1 A1A       0.076700
     52 H23        -17.0810     3.8410    22.2280 h1         1 A1A       0.076700
     53 H24        -19.1710     8.7070    21.8820 h1         1 A1A       0.058200
     54 H25        -20.0690     7.2050    21.9660 h1         1 A1A       0.058200
     55 H26        -10.3470     2.1150    25.8200 ha         1 A1A       0.124000
     56 H27        -11.4190     6.2570    26.1060 ha         1 A1A       0.124000
     57 H28        -20.6450     8.4370    19.8930 hc         1 A1A       0.043033
     58 H29        -18.9550     8.4490    19.3910 hc         1 A1A       0.043033
     59 H30        -19.8470     6.9250    19.4710 hc         1 A1A       0.043033
     60 O01         -9.0170     1.8820    19.3180 o          1 A1A      -0.523100
     61 O03         -5.8530     1.0430    23.1170 o          1 A1A      -0.711500
     62 O04         -6.0320     1.7120    25.2400 o          1 A1A      -0.711500
     63 H7          -8.6290     2.6520    22.5980 hn         1 A1A       0.409000
@<TRIPOS>BOND
     1     1     8 2   
     2     1    14 1   
     3     1    15 1   
     4     2    16 1   
     5     2    28 1   
     6     2    35 1   
     7     2    36 1   
     8     3    27 ar  
     9     3    31 ar  
    10     3    37 1   
    11     4    27 ar  
    12     4    32 ar  
    13     4    38 1   
    14     5    10 2   
    15     5    16 1   
    16     5    29 1   
    17     6    17 1   
    18     6    22 1   
    19     7    23 2   
    20     9    29 2   
    21    11    33 1   
    22    11    39 1   
    23    12    17 1   
    24    12    20 1   
    25    12    63 1   
    26    13    18 1   
    27    13    23 1   
    28    13    40 1   
    29    14    25 1   
    30    14    41 1   
    31    15    28 1   
    32    15    29 1   
    33    16    30 1   
    34    17    18 1   
    35    17    42 1   
    36    18    19 1   
    37    18    43 1   
    38    19    44 1   
    39    19    60 2   
    40    20    21 1   
    41    20    26 1   
    42    20    45 1   
    43    21    22 1   
    44    21    24 2   
    45    22    46 1   
    46    22    47 1   
    47    23    25 1   
    48    24    48 1   
    49    24    49 1   
    50    25    27 1   
    51    25    50 1   
    52    26    61 1   
    53    26    62 1   
    54    28    51 1   
    55    28    52 1   
    56    30    34 1   
    57    30    53 1   
    58    30    54 1   
    59    31    33 ar  
    60    31    55 1   
    61    32    33 ar  
    62    32    56 1   
    63    34    57 1   
    64    34    58 1   
    65    34    59 1   
@<TRIPOS>SUBSTRUCTURE
     1 A1A         1 TEMP              0 ****  ****    0 ROOT
