@<TRIPOS>MOLECULE
A1A
   86    90     1     0     0
SMALL
No Charge or Current Charge


@<TRIPOS>ATOM
      1 N1           4.2120   -10.6150    45.5660 n          1 A1A      -0.435800
      2 C7           2.7450   -12.0840    41.2870 ca         1 A1A       0.162100
      3 C8           2.8300   -13.2240    40.4640 ca         1 A1A      -0.236000
      4 N2           4.6070   -13.3620    50.3810 no         1 A1A       0.694200
      5 C9           2.8690   -14.5060    41.0270 ca         1 A1A      -0.050000
      6 O1           5.0130   -10.6200    43.4160 o          1 A1A      -0.580100
      7 C1           3.5590    -9.4520    46.2450 c5         1 A1A       0.035700
      8 C5           2.6530   -11.0120    43.6190 c3         1 A1A      -0.103100
      9 C6           2.6690   -12.2400    42.6890 ca         1 A1A      -0.097300
     10 C4           4.0560   -10.7300    44.1710 c          1 A1A       0.621100
     11 C3           5.5680   -10.7010    46.1400 c5         1 A1A       0.342400
     12 C2           4.6240    -8.7750    47.1550 c          1 A1A       0.559000
     13 N            5.7750    -9.5430    47.0030 n          1 A1A      -0.416800
     14 C            2.3020    -9.8200    47.0700 c3         1 A1A      -0.103100
     15 O            4.5260    -7.7830    47.8660 o          1 A1A      -0.576000
     16 C10          2.8070   -14.6830    42.4250 ca         1 A1A      -0.160300
     17 C11          2.6770   -13.5410    43.2420 ca         1 A1A       0.205100
     18 C12          2.6460   -14.8550    45.2820 ca         1 A1A       0.147100
     19 C13          2.8590   -16.0630    44.5850 ca         1 A1A      -0.162300
     20 C14          2.9930   -17.2550    45.3270 ca         1 A1A      -0.081000
     21 C15          2.9170   -17.2420    46.7250 ca         1 A1A      -0.228000
     22 C16          2.6630   -16.0410    47.4180 ca         1 A1A       0.144100
     23 C17          2.5040   -14.8360    46.6920 ca         1 A1A      -0.020300
     24 C18          2.1360   -13.5240    47.4110 c3         1 A1A      -0.178100
     25 C19          0.6120   -13.3320    47.3790 c          1 A1A       0.725000
     26 C20          2.8190   -17.1690    49.6150 c3         1 A1A       0.155900
     27 C21          2.8910   -16.0950    43.0420 c6         1 A1A       0.078600
     28 C22          4.2020   -16.7970    42.5590 c3         1 A1A      -0.076600
     29 C23          1.6810   -16.9380    42.5350 c3         1 A1A      -0.076600
     30 C24          2.8380   -10.5560    39.3430 c3         1 A1A       0.156900
     31 C25          5.6450   -11.9970    46.9540 ca         1 A1A      -0.139300
     32 C26          5.1230   -12.0840    48.2630 ca         1 A1A      -0.023000
     33 C27          5.1650   -13.2960    48.9880 ca         1 A1A      -0.183200
     34 C28          5.7230   -14.4430    48.3800 ca         1 A1A      -0.144000
     35 C29          6.2580   -14.3760    47.0750 ca         1 A1A       0.079100
     36 C30          6.2220   -13.1450    46.3690 ca         1 A1A       0.194100
     37 C31          6.3500   -13.7880    43.9880 c3         1 A1A       0.024600
     38 C32          7.1780   -13.5250    42.6920 c          1 A1A       0.725000
     39 C33          6.8060   -16.7930    47.0720 c3         1 A1A       0.148900
     40 C34          7.0310    -9.2060    47.6950 c3         1 A1A       0.097300
     41 O10          6.8520   -15.4810    46.4870 os         1 A1A      -0.293100
     42 O11          4.0360   -12.3590    50.8300 o          1 A1A      -0.409000
     43 O12          4.7630   -14.4060    51.0270 o          1 A1A      -0.409000
     44 O2           2.5680   -13.6640    44.6030 os         1 A1A      -0.208200
     45 O7           6.8090   -13.0150    45.1250 os         1 A1A      -0.344100
     46 O8           6.8650   -14.1440    41.6830 o          1 A1A      -0.724000
     47 O9           8.1310   -12.7550    42.7260 o          1 A1A      -0.724000
     48 H7           2.8840   -13.1370    39.3830 ha         1 A1A       0.101000
     49 H8           2.9510   -15.3630    40.3630 ha         1 A1A       0.096000
     50 H3           3.2680    -8.6990    45.5010 h1         1 A1A       0.062700
     51 H6           2.3170   -10.1110    43.0960 hc         1 A1A       0.097700
     52 H5           1.9520   -11.1570    44.4450 hc         1 A1A       0.097700
     53 H4           6.3240   -10.6560    45.3460 h2         1 A1A       0.098700
     54 H2           1.8730    -8.9280    47.5430 hc         1 A1A       0.065700
     55 H            1.5180   -10.2600    46.4460 hc         1 A1A       0.065700
     56 H1           2.5380   -10.5320    47.8680 hc         1 A1A       0.065700
     57 H9           3.1500   -18.2060    44.8250 ha         1 A1A       0.088000
     58 H10          3.0330   -18.1840    47.2520 ha         1 A1A       0.095000
     59 H11          2.4660   -13.5930    48.4500 hc         1 A1A       0.049200
     60 H12          2.6290   -12.7070    46.8760 hc         1 A1A       0.049200
     61 H14          2.7100   -16.9120    50.6760 h1         1 A1A       0.024367
     62 H15          2.1100   -17.9750    49.3860 h1         1 A1A       0.024367
     63 H16          3.8400   -17.5380    49.4560 h1         1 A1A       0.024367
     64 H17          5.0870   -16.2570    42.9110 hc         1 A1A       0.031700
     65 H18          4.2810   -17.8270    42.9250 hc         1 A1A       0.031700
     66 H19          4.2650   -16.8520    41.4670 hc         1 A1A       0.031700
     67 H20          1.6990   -17.9590    42.9330 hc         1 A1A       0.031700
     68 H21          0.7320   -16.4820    42.8430 hc         1 A1A       0.031700
     69 H22          1.6660   -17.0220    41.4430 hc         1 A1A       0.031700
     70 H23          2.8200    -9.4760    39.1480 h1         1 A1A       0.030700
     71 H24          3.7760   -10.9590    38.9410 h1         1 A1A       0.030700
     72 H25          1.9970   -11.0120    38.8060 h1         1 A1A       0.030700
     73 H26          4.6810   -11.2010    48.7200 ha         1 A1A       0.165000
     74 H27          5.7470   -15.3760    48.9360 ha         1 A1A       0.136000
     75 H29          5.3050   -13.5460    43.7700 h1         1 A1A       0.032700
     76 H28          6.4080   -14.8620    44.1920 h1         1 A1A       0.032700
     77 H31          7.2960   -17.5200    46.4120 h1         1 A1A       0.033367
     78 H32          7.3270   -16.8080    48.0380 h1         1 A1A       0.033367
     79 H33          5.7680   -17.1150    47.2240 h1         1 A1A       0.033367
     80 H34          7.3510    -8.1950    47.4140 h1         1 A1A       0.046700
     81 H35          6.8790    -9.2490    48.7810 h1         1 A1A       0.046700
     82 H36          7.8160    -9.9210    47.4160 h1         1 A1A       0.046700
     83 O5           2.5620   -16.0170    48.7980 os         1 A1A      -0.306100
     84 O4          -0.0510   -13.8370    48.2730 o          1 A1A      -0.731500
     85 O3           0.1160   -12.7770    46.4110 o          1 A1A      -0.731500
     86 O6           2.7390   -10.8070    40.7560 os         1 A1A      -0.339100
@<TRIPOS>BOND
     1     1     7 1   
     2     1    10 1   
     3     1    11 1   
     4     2     3 ar  
     5     2     9 ar  
     6     2    86 1   
     7     3     5 ar  
     8     3    48 1   
     9     4    33 1   
    10     4    42 1   
    11     4    43 1   
    12     5    16 ar  
    13     5    49 1   
    14     6    10 2   
    15     7    12 1   
    16     7    14 1   
    17     7    50 1   
    18     8     9 1   
    19     8    10 1   
    20     8    51 1   
    21     8    52 1   
    22     9    17 ar  
    23    11    13 1   
    24    11    31 1   
    25    11    53 1   
    26    12    13 1   
    27    12    15 2   
    28    13    40 1   
    29    14    54 1   
    30    14    55 1   
    31    14    56 1   
    32    16    17 ar  
    33    16    27 1   
    34    17    44 1   
    35    18    19 ar  
    36    18    23 ar  
    37    18    44 1   
    38    19    20 ar  
    39    19    27 1   
    40    20    21 ar  
    41    20    57 1   
    42    21    22 ar  
    43    21    58 1   
    44    22    23 ar  
    45    22    83 1   
    46    23    24 1   
    47    24    25 1   
    48    24    59 1   
    49    24    60 1   
    50    25    84 1   
    51    25    85 1   
    52    26    61 1   
    53    26    62 1   
    54    26    63 1   
    55    26    83 1   
    56    27    28 1   
    57    27    29 1   
    58    28    64 1   
    59    28    65 1   
    60    28    66 1   
    61    29    67 1   
    62    29    68 1   
    63    29    69 1   
    64    30    70 1   
    65    30    71 1   
    66    30    72 1   
    67    30    86 1   
    68    31    32 ar  
    69    31    36 ar  
    70    32    33 ar  
    71    32    73 1   
    72    33    34 ar  
    73    34    35 ar  
    74    34    74 1   
    75    35    36 ar  
    76    35    41 1   
    77    36    45 1   
    78    37    38 1   
    79    37    45 1   
    80    37    75 1   
    81    37    76 1   
    82    38    46 1   
    83    38    47 1   
    84    39    41 1   
    85    39    77 1   
    86    39    78 1   
    87    39    79 1   
    88    40    80 1   
    89    40    81 1   
    90    40    82 1   
@<TRIPOS>SUBSTRUCTURE
     1 A1A         1 TEMP              0 ****  ****    0 ROOT
