@<TRIPOS>MOLECULE
A1A
   61    64     1     0     0
SMALL
No Charge or Current Charge


@<TRIPOS>ATOM
      1 S1         -29.4310   -49.5530   -22.5450 s6         1 A1A       1.347500
      2 O1         -35.9570   -52.5640   -22.4210 o          1 A1A      -0.582100
      3 O2         -30.5170   -48.6260   -22.8760 o          1 A1A      -0.540000
      4 O3         -35.7350   -57.2540   -24.0950 os         1 A1A      -0.446000
      5 C1         -35.0030   -53.2330   -22.7990 c          1 A1A       0.631700
      6 C10        -26.6830   -48.6690   -19.8050 c5         1 A1A      -0.118400
      7 C11        -27.1340   -49.5220   -21.0140 c5         1 A1A       0.231800
      8 C12        -31.8760   -51.6440   -21.3220 ca         1 A1A      -0.121000
      9 C13        -33.1730   -52.1660   -21.4590 ca         1 A1A      -0.049000
     10 C14        -36.5830   -54.9980   -23.6310 c6         1 A1A       0.062000
     11 C15        -34.1710   -55.5780   -23.2120 c6         1 A1A       0.067000
     12 C16        -34.3700   -56.8000   -24.1440 c6         1 A1A       0.136600
     13 C17        -36.6670   -56.2520   -24.5450 c6         1 A1A       0.195600
     14 C18        -38.0740   -56.8590   -24.5760 ca         1 A1A      -0.084300
     15 C19        -38.6210   -57.4640   -23.4250 ca         1 A1A      -0.089000
     16 C2         -33.6060   -52.6840   -22.6980 ca         1 A1A      -0.177600
     17 C20        -39.9150   -58.0120   -23.4580 ca         1 A1A      -0.115000
     18 C21        -40.6710   -57.9610   -24.6410 ca         1 A1A      -0.104000
     19 C22        -40.1320   -57.3610   -25.7910 ca         1 A1A      -0.115000
     20 C23        -38.8380   -56.8120   -25.7600 ca         1 A1A      -0.089000
     21 C3         -32.7310   -52.6270   -23.8080 ca         1 A1A       0.185000
     22 C4         -31.4380   -52.1010   -23.6610 ca         1 A1A      -0.211000
     23 C5         -31.0070   -51.6100   -22.4220 ca         1 A1A       0.288400
     24 C6         -29.1140   -49.1130   -19.8640 c5         1 A1A       0.239800
     25 C7         -27.9550   -48.6850   -18.8920 c5         1 A1A       0.173500
     26 C8         -27.2250   -46.9040   -17.2740 c3         1 A1A       0.154100
     27 C9         -28.4910   -46.1900   -19.2610 c3         1 A1A       0.154100
     28 F1         -28.2130   -49.4160   -23.6340 f          1 A1A      -0.293900
     29 N1         -29.7170   -51.0970   -22.2900 ne         1 A1A      -0.683900
     30 N2         -28.5040   -49.0090   -21.2110 n3         1 A1A      -0.796500
     31 N3         -28.1970   -47.3050   -18.3170 n3         1 A1A      -0.717600
     32 N4         -35.1910   -54.4960   -23.4020 n          1 A1A      -0.406800
     33 H2         -25.8100   -49.0990   -19.3030 hc         1 A1A       0.064200
     34 H3         -26.3930   -47.6690   -20.1410 hc         1 A1A       0.064200
     35 H4         -27.1290   -50.5970   -20.7800 h1         1 A1A       0.065700
     36 H5         -26.4790   -49.3580   -21.8800 h1         1 A1A       0.065700
     37 H6         -31.5460   -51.2650   -20.3580 ha         1 A1A       0.134000
     38 H7         -33.8370   -52.1840   -20.5970 ha         1 A1A       0.125000
     39 H8         -37.1890   -54.1990   -24.0830 h1         1 A1A       0.071700
     40 H9         -37.0350   -55.2310   -22.6570 h1         1 A1A       0.071700
     41 H10        -34.2210   -55.9220   -22.1690 h1         1 A1A       0.060200
     42 H11        -33.1570   -55.1890   -23.3680 h1         1 A1A       0.060200
     43 H12        -33.7050   -57.6190   -23.8340 h1         1 A1A       0.056200
     44 H13        -34.1150   -56.5270   -25.1790 h1         1 A1A       0.056200
     45 H14        -36.3850   -55.9570   -25.5670 h1         1 A1A       0.051700
     46 H15        -38.0410   -57.5110   -22.5060 ha         1 A1A       0.117500
     47 H16        -40.3310   -58.4780   -22.5670 ha         1 A1A       0.113000
     48 H17        -41.6730   -58.3860   -24.6660 ha         1 A1A       0.112000
     49 H18        -40.7170   -57.3210   -26.7080 ha         1 A1A       0.113000
     50 H19        -38.4320   -56.3490   -26.6560 ha         1 A1A       0.117500
     51 H20        -30.7720   -52.0640   -24.5170 ha         1 A1A       0.131000
     52 H21        -30.0150   -48.4950   -19.7530 h1         1 A1A       0.073200
     53 H22        -29.4080   -50.1490   -19.6450 h1         1 A1A       0.073200
     54 H23        -27.8560   -49.4340   -18.0940 h1         1 A1A       0.062700
     55 H24        -27.5530   -45.9860   -16.7680 h1         1 A1A       0.034867
     56 H25        -27.1240   -47.6900   -16.5140 h1         1 A1A       0.034867
     57 H26        -26.2340   -46.7190   -17.7110 h1         1 A1A       0.034867
     58 H27        -28.8390   -45.3070   -18.7080 h1         1 A1A       0.034867
     59 H28        -27.5990   -45.8930   -19.8270 h1         1 A1A       0.034867
     60 H29        -29.2770   -46.4550   -19.9780 h1         1 A1A       0.034867
     61 Cl1        -33.2310   -53.1280   -25.4250 cl         1 A1A      -0.196000
@<TRIPOS>BOND
     1     1     3 2   
     2     1    28 1   
     3     1    29 2   
     4     1    30 1   
     5     2     5 2   
     6     4    12 1   
     7     4    13 1   
     8     5    16 1   
     9     5    32 1   
    10     6     7 1   
    11     6    25 1   
    12     6    33 1   
    13     6    34 1   
    14     7    30 1   
    15     7    35 1   
    16     7    36 1   
    17     8     9 ar  
    18     8    23 ar  
    19     8    37 1   
    20     9    16 ar  
    21     9    38 1   
    22    10    13 1   
    23    10    32 1   
    24    10    39 1   
    25    10    40 1   
    26    11    12 1   
    27    11    32 1   
    28    11    41 1   
    29    11    42 1   
    30    12    43 1   
    31    12    44 1   
    32    13    14 1   
    33    13    45 1   
    34    14    15 ar  
    35    14    20 ar  
    36    15    17 ar  
    37    15    46 1   
    38    16    21 ar  
    39    17    18 ar  
    40    17    47 1   
    41    18    19 ar  
    42    18    48 1   
    43    19    20 ar  
    44    19    49 1   
    45    20    50 1   
    46    21    22 ar  
    47    21    61 1   
    48    22    23 ar  
    49    22    51 1   
    50    23    29 1   
    51    24    25 1   
    52    24    30 1   
    53    24    52 1   
    54    24    53 1   
    55    25    31 1   
    56    25    54 1   
    57    26    31 1   
    58    26    55 1   
    59    26    56 1   
    60    26    57 1   
    61    27    31 1   
    62    27    58 1   
    63    27    59 1   
    64    27    60 1   
@<TRIPOS>SUBSTRUCTURE
     1 A1A         1 TEMP              0 ****  ****    0 ROOT
