@<TRIPOS>MOLECULE
A1A
   24    24     1     0     0
SMALL
No Charge or Current Charge


@<TRIPOS>ATOM
      1 N1          89.3260   -26.0060    33.0590 n8         1 A1A      -1.005200
      2 C5          87.9230   -28.1050    32.8760 c3         1 A1A      -0.032100
      3 C6          88.5710   -28.6480    31.5830 ca         1 A1A       0.041700
      4 C7          88.6900   -27.8280    30.4360 ca         1 A1A      -0.099000
      5 C8          89.0480   -29.9880    31.5060 ca         1 A1A      -0.185200
      6 C10         89.6610   -30.4530    30.3190 ca         1 A1A      -0.071000
      7 C2          87.9220   -26.5630    33.0960 c3         1 A1A       0.004500
      8 C3          87.0730   -26.2100    34.3860 c          1 A1A       0.695000
      9 C9          89.2900   -28.3040    29.2590 ca         1 A1A      -0.087000
     10 C11         89.7810   -29.6140    29.2030 ca         1 A1A      -0.144000
     11 N23         88.9180   -30.9390    32.6480 no         1 A1A       0.691200
     12 OXT         85.9810   -25.6790    34.2330 o          1 A1A      -0.724500
     13 O24         87.8000   -31.0800    33.1600 o          1 A1A      -0.406500
     14 O25         89.8850   -31.6700    32.8990 o          1 A1A      -0.406500
     15 H1          89.2840   -24.9830    33.1580 hn         1 A1A       0.387000
     16 H2          89.8130   -26.2980    33.9160 hn         1 A1A       0.387000
     17 H4          86.8820   -28.4480    32.9110 hc         1 A1A       0.078700
     18 H5          88.4130   -28.5480    33.7510 hc         1 A1A       0.078700
     19 H6          88.3240   -26.8060    30.4440 ha         1 A1A       0.142000
     20 H7          90.0330   -31.4750    30.2560 ha         1 A1A       0.126000
     21 H8          87.3790   -26.1080    32.2570 h1         1 A1A       0.037700
     22 O1          87.5840   -26.3840    35.4850 o          1 A1A      -0.724500
     23 H11         89.3760   -27.6540    28.3910 ha         1 A1A       0.107000
     24 H12         90.2480   -29.9830    28.2920 ha         1 A1A       0.108000
@<TRIPOS>BOND
     1     1     7 1   
     2     1    15 1   
     3     1    16 1   
     4     2     3 1   
     5     2     7 1   
     6     2    17 1   
     7     2    18 1   
     8     3     4 ar  
     9     3     5 ar  
    10     4     9 ar  
    11     4    19 1   
    12     5     6 ar  
    13     5    11 1   
    14     6    10 ar  
    15     6    20 1   
    16     7     8 1   
    17     7    21 1   
    18     8    12 1   
    19     8    22 1   
    20     9    10 ar  
    21     9    23 1   
    22    10    24 1   
    23    11    13 1   
    24    11    14 1   
@<TRIPOS>SUBSTRUCTURE
     1 A1A         1 TEMP              0 ****  ****    0 ROOT
