@<TRIPOS>MOLECULE
A1A
   93    95     1     0     0
SMALL
abcg2


@<TRIPOS>ATOM
      1 C4         -43.2670    25.0360   -13.1280 ca         1 A1A      -0.140000
      2 C14        -50.3190    19.0910   -12.3180 c3         1 A1A      -0.114400
      3 C5         -43.0020    23.8630   -12.4300 ca         1 A1A      -0.079000
      4 C6         -44.0000    23.1600   -11.7690 ca         1 A1A      -0.119300
      5 C11        -48.3480    22.5000   -10.1740 c3         1 A1A       0.169300
      6 C7         -43.6840    21.9130   -10.9920 c3         1 A1A      -0.018100
      7 C8         -43.5320    22.1700    -9.4900 c3         1 A1A      -0.073400
      8 C9         -43.2570    20.8910    -8.7140 c3         1 A1A      -0.089100
      9 C10        -47.5350    23.4960   -10.9870 c3         1 A1A       0.170600
     10 C12        -48.5470    21.1600   -10.8760 c3         1 A1A       0.139800
     11 C13        -49.3490    20.1080   -12.9310 c3         1 A1A       0.170800
     12 N1         -49.1200    21.3310   -12.1900 n7         1 A1A      -0.870400
     13 N2         -52.2380    21.8370   -13.0010 nc         1 A1A      -0.369000
     14 C3         -44.5620    25.5230   -13.1590 ca         1 A1A      -0.077000
     15 N3         -52.7650    22.2720   -14.0960 nd         1 A1A      -0.199800
     16 C1         -45.3070    23.6720   -11.8090 ca         1 A1A       0.155100
     17 C15        -51.6680    19.6850   -11.8900 c3         1 A1A      -0.094700
     18 C16        -52.3080    20.4870   -12.9700 cc         1 A1A       0.202300
     19 C17        -52.9340    20.0850   -14.1240 cd         1 A1A      -0.212000
     20 C19        -52.6600    20.8070   -17.1420 c3         1 A1A      -0.096400
     21 C2         -45.5840    24.8480   -12.5010 ca         1 A1A      -0.197000
     22 C20        -51.2180    21.2200   -16.8720 c3         1 A1A      -0.080400
     23 C21        -50.2480    20.6990   -17.9330 c3         1 A1A      -0.020100
     24 C22        -48.8130    20.8040   -17.4940 ca         1 A1A      -0.123300
     25 C23        -48.0550    19.6610   -17.2430 ca         1 A1A      -0.068500
     26 C24        -46.7420    19.7400   -16.8150 ca         1 A1A      -0.168500
     27 C25        -46.1420    20.9830   -16.6180 ca         1 A1A       0.154100
     28 C26        -46.8880    22.1370   -16.8370 ca         1 A1A      -0.168500
     29 C27        -48.2040    22.0350   -17.2750 ca         1 A1A      -0.068500
     30 C28        -44.1360    22.1750   -16.0990 c3         1 A1A       0.156600
     31 C29        -42.6610    21.8180   -16.0090 c3         1 A1A       0.173300
     32 C30        -42.3220    20.9750   -14.7800 c3         1 A1A       0.118800
     33 C31        -40.3610    20.6440   -13.3160 c3         1 A1A       0.178500
     34 C32        -38.8430    20.7420   -13.3430 c3         1 A1A      -0.109100
     35 C33        -40.8110    19.2970   -12.7540 c3         1 A1A      -0.109100
     36 N4         -53.1960    21.2300   -14.7800 na         1 A1A       0.127800
     37 N5         -40.8750    20.9340   -14.6490 n7         1 A1A      -0.898400
     38 O1         -46.2390    22.9580   -11.1450 os         1 A1A      -0.352100
     39 O2         -49.5810    23.1480    -9.9320 oh         1 A1A      -0.658000
     40 O3         -44.8510    20.9630   -16.2270 os         1 A1A      -0.358100
     41 O4         -41.9390    23.0240   -15.9680 oh         1 A1A      -0.667000
     42 H3         -42.4680    25.5590   -13.6370 ha         1 A1A       0.118000
     43 H19        -50.4890    18.3030   -13.0560 hc         1 A1A       0.040200
     44 H20        -49.8690    18.6010   -11.4500 hc         1 A1A       0.040200
     45 H4         -41.9890    23.4790   -12.3970 ha         1 A1A       0.109000
     46 H12        -47.8180    22.3070    -9.2310 h1         1 A1A       0.039700
     47 H6         -44.4550    21.1550   -11.1520 hc         1 A1A       0.043200
     48 H5         -42.7530    21.4810   -11.3690 hc         1 A1A       0.043200
     49 H7         -42.7190    22.8840    -9.3330 hc         1 A1A       0.043200
     50 H50        -44.4370    22.6460    -9.1060 hc         1 A1A       0.043200
     51 H9         -43.1380    21.0890    -7.6480 hc         1 A1A       0.029033
     52 H8         -44.0750    20.1780    -8.8300 hc         1 A1A       0.029033
     53 H51        -42.3440    20.4040    -9.0640 hc         1 A1A       0.029033
     54 H11        -47.4870    24.4530   -10.4540 h1         1 A1A       0.054700
     55 H10        -48.0110    23.6700   -11.9570 h1         1 A1A       0.054700
     56 H14        -47.5800    20.6580   -10.9710 h1         1 A1A       0.030700
     57 H13        -49.1490    20.5250   -10.2030 h1         1 A1A       0.030700
     58 H17        -49.7110    20.3900   -13.9230 h1         1 A1A       0.052200
     59 H18        -48.3860    19.6150   -13.0950 h1         1 A1A       0.052200
     60 H16        -49.9830    21.8590   -12.1270 hn         1 A1A       0.442000
     61 H2         -44.7920    26.4350   -13.6950 ha         1 A1A       0.111000
     62 H21        -52.3290    18.8750   -11.5750 hc         1 A1A       0.052700
     63 H22        -51.5330    20.3260   -11.0160 hc         1 A1A       0.052700
     64 H23        -53.1890    19.1140   -14.5150 h4         1 A1A       0.165000
     65 H24        -54.6360    20.9300   -16.2530 h1         1 A1A       0.074200
     66 H25        -53.7740    22.4670   -16.2980 h1         1 A1A       0.074200
     67 H27        -52.7310    19.7160   -17.1290 hc         1 A1A       0.049700
     68 H26        -52.9700    21.1230   -18.1420 hc         1 A1A       0.049700
     69 H1         -46.5870    25.2520   -12.5380 ha         1 A1A       0.121000
     70 H28        -51.1420    22.3090   -16.8050 hc         1 A1A       0.054700
     71 H29        -50.9030    20.8270   -15.9020 hc         1 A1A       0.054700
     72 H31        -50.4760    19.6510   -18.1450 hc         1 A1A       0.042200
     73 H30        -50.4060    21.2410   -18.8700 hc         1 A1A       0.042200
     74 H32        -48.4990    18.6840   -17.3920 ha         1 A1A       0.109000
     75 H33        -46.1690    18.8370   -16.6390 ha         1 A1A       0.123000
     76 H34        -46.4670    23.1210   -16.6760 ha         1 A1A       0.123000
     77 H35        -48.7620    22.9490   -17.4490 ha         1 A1A       0.109000
     78 H36        -44.2980    22.8230   -16.9690 h1         1 A1A       0.054200
     79 H37        -44.4540    22.7250   -15.2040 h1         1 A1A       0.054200
     80 H38        -42.3970    21.2400   -16.9100 h1         1 A1A       0.037700
     81 H39        -42.7320    21.4630   -13.8910 h1         1 A1A       0.053700
     82 H40        -42.7900    19.9880   -14.8510 h1         1 A1A       0.053700
     83 H43        -40.7430    21.4310   -12.6570 h1         1 A1A       0.057700
     84 H44        -38.4280    20.5960   -12.3460 hc         1 A1A       0.038867
     85 H45        -38.4160    19.9760   -13.9940 hc         1 A1A       0.038867
     86 H46        -38.5190    21.7170   -13.7090 hc         1 A1A       0.038867
     87 H47        -40.4170    19.1440   -11.7480 hc         1 A1A       0.038867
     88 H49        -41.8980    19.2220   -12.6940 hc         1 A1A       0.038867
     89 H48        -40.4510    18.4770   -13.3810 hc         1 A1A       0.038867
     90 H53        -40.4930    20.2640   -15.3080 hn         1 A1A       0.413000
     91 H15        -50.1180    22.5770    -9.3740 ho         1 A1A       0.446000
     92 H41        -41.1060    22.7770   -15.5310 ho         1 A1A       0.476000
     93 C18        -53.6560    21.3950   -16.1470 c3         1 A1A       0.075600
@<TRIPOS>BOND
     1     1     3 ar  
     2     1    14 ar  
     3     1    42 1   
     4     2    11 1   
     5     2    17 1   
     6     2    43 1   
     7     2    44 1   
     8     3     4 ar  
     9     3    45 1   
    10     4     6 1   
    11     4    16 ar  
    12     5     9 1   
    13     5    10 1   
    14     5    39 1   
    15     5    46 1   
    16     6     7 1   
    17     6    47 1   
    18     6    48 1   
    19     7     8 1   
    20     7    49 1   
    21     7    50 1   
    22     8    51 1   
    23     8    52 1   
    24     8    53 1   
    25     9    38 1   
    26     9    54 1   
    27     9    55 1   
    28    10    12 1   
    29    10    56 1   
    30    10    57 1   
    31    11    12 1   
    32    11    58 1   
    33    11    59 1   
    34    12    60 1   
    35    13    15 2   
    36    13    18 1   
    37    14    21 ar  
    38    14    61 1   
    39    15    36 1   
    40    16    21 ar  
    41    16    38 1   
    42    17    18 1   
    43    17    62 1   
    44    17    63 1   
    45    18    19 2   
    46    19    36 1   
    47    19    64 1   
    48    20    22 1   
    49    20    67 1   
    50    20    68 1   
    51    20    93 1   
    52    21    69 1   
    53    22    23 1   
    54    22    70 1   
    55    22    71 1   
    56    23    24 1   
    57    23    72 1   
    58    23    73 1   
    59    24    25 ar  
    60    24    29 ar  
    61    25    26 ar  
    62    25    74 1   
    63    26    27 ar  
    64    26    75 1   
    65    27    28 ar  
    66    27    40 1   
    67    28    29 ar  
    68    28    76 1   
    69    29    77 1   
    70    30    31 1   
    71    30    40 1   
    72    30    78 1   
    73    30    79 1   
    74    31    32 1   
    75    31    41 1   
    76    31    80 1   
    77    32    37 1   
    78    32    81 1   
    79    32    82 1   
    80    33    34 1   
    81    33    35 1   
    82    33    37 1   
    83    33    83 1   
    84    34    84 1   
    85    34    85 1   
    86    34    86 1   
    87    35    87 1   
    88    35    88 1   
    89    35    89 1   
    90    36    93 1   
    91    37    90 1   
    92    39    91 1   
    93    41    92 1   
    94    65    93 1   
    95    66    93 1   
@<TRIPOS>SUBSTRUCTURE
     1 A1A         1 TEMP              0 ****  ****    0 ROOT
