@<TRIPOS>MOLECULE
A1A
   56    59     1     0     0
SMALL
No Charge or Current Charge


@<TRIPOS>ATOM
      1 C18        186.2960   206.8530   191.5580 c          1 A1A       0.620000
      2 C19        185.6400   205.5720   189.7230 c          1 A1A       0.568000
      3 C20        185.9240   204.6070   190.9280 c5         1 A1A       0.045400
      4 C16        185.1110   209.1830   189.9510 ca         1 A1A      -0.103500
      5 C15        184.9830   210.3530   189.1830 ca         1 A1A      -0.053000
      6 C14        185.5270   210.4190   187.8820 ca         1 A1A      -0.196300
      7 C13        186.1860   209.2840   187.3630 ca         1 A1A      -0.053000
      8 C12        186.3110   208.1160   188.1330 ca         1 A1A      -0.103500
      9 C11        185.7770   208.0540   189.4360 ca         1 A1A      -0.001000
     10 C10        185.6330   198.3940   188.0310 c6         1 A1A      -0.108900
     11 C02        186.6840   202.5330   189.5940 c6         1 A1A       0.162800
     12 C03        184.3280   202.6850   190.2870 c6         1 A1A       0.162800
     13 C04        184.6780   203.7680   191.3360 c6         1 A1A      -0.073400
     14 C06        186.1540   199.5120   188.9760 c6         1 A1A      -0.058700
     15 C07        186.5610   198.8940   190.3450 c6         1 A1A      -0.108900
     16 C08        187.5310   197.7050   190.1450 c6         1 A1A       0.154600
     17 C09        186.6500   197.2300   187.9420 c6         1 A1A       0.154600
     18 C21        187.0830   203.6120   190.6300 c6         1 A1A      -0.073400
     19 F01        186.4080   211.8570   186.1750 f          1 A1A      -0.113000
     20 F02        185.3300   212.8090   187.7980 f          1 A1A      -0.113000
     21 F03        184.2460   211.6620   186.3030 f          1 A1A      -0.113000
     22 N01        185.4780   201.7750   190.0360 n3         1 A1A      -0.715600
     23 N02        186.3080   205.5410   192.0120 n          1 A1A      -0.419800
     24 N03        185.9050   206.8540   190.2240 n          1 A1A      -0.226000
     25 O01        186.9380   196.7260   189.2640 os         1 A1A      -0.450000
     26 O02        186.5970   207.8290   192.2290 o          1 A1A      -0.532000
     27 O03        185.2450   205.3150   188.5910 o          1 A1A      -0.490000
     28 H1         184.6750   209.1560   190.9480 ha         1 A1A       0.132000
     29 H2         184.4550   211.2060   189.6040 ha         1 A1A       0.133500
     30 H3         186.6050   209.3020   186.3580 ha         1 A1A       0.133500
     31 H4         186.8350   207.2610   187.7140 ha         1 A1A       0.132000
     32 H6         184.6710   198.0070   188.3950 hc         1 A1A       0.052450
     33 H10        187.5430   201.8590   189.4700 h1         1 A1A       0.046700
     34 H11        186.5060   203.0040   188.6160 h1         1 A1A       0.046700
     35 H12        184.0050   203.1650   189.3520 h1         1 A1A       0.046700
     36 H13        183.4670   202.1100   190.6600 h1         1 A1A       0.046700
     37 H14        183.8140   204.4290   191.4870 hc         1 A1A       0.060450
     38 H15        184.8570   203.2720   192.2990 hc         1 A1A       0.060450
     39 H18        187.0470   199.9480   188.5080 hc         1 A1A       0.045700
     40 H19        187.0390   199.6520   190.9800 hc         1 A1A       0.052450
     41 H20        185.6680   198.5510   190.8840 hc         1 A1A       0.052450
     42 H21        187.7490   197.2310   191.1120 h1         1 A1A       0.042450
     43 H22        188.4810   198.0550   189.7130 h1         1 A1A       0.042450
     44 H23        186.2380   196.4160   187.3300 h1         1 A1A       0.042450
     45 H24        187.5840   197.5730   187.4720 h1         1 A1A       0.042450
     46 H25        187.3920   203.1060   191.5540 hc         1 A1A       0.060450
     47 H26        187.9650   204.1590   190.2700 hc         1 A1A       0.060450
     48 C01        186.6930   205.2020   193.3990 c3         1 A1A       0.106300
     49 C17        185.3800   211.6900   187.0390 c3         1 A1A       0.358300
     50 C05        185.1060   200.6600   189.1260 c3         1 A1A       0.168800
     51 H5         185.4490   198.8000   187.0270 hc         1 A1A       0.052450
     52 H7         187.7150   205.5500   193.5940 h1         1 A1A       0.049700
     53 H8         186.0060   205.6910   194.1020 h1         1 A1A       0.049700
     54 H9         186.6500   204.1180   193.5550 h1         1 A1A       0.049700
     55 H16        184.8910   201.0580   188.1240 h1         1 A1A       0.035700
     56 H17        184.1770   200.1990   189.4890 h1         1 A1A       0.035700
@<TRIPOS>BOND
     1     1    23 1   
     2     1    24 1   
     3     1    26 2   
     4     2     3 1   
     5     2    24 1   
     6     2    27 2   
     7     3    13 1   
     8     3    18 1   
     9     3    23 1   
    10     4     5 ar  
    11     4     9 ar  
    12     4    28 1   
    13     5     6 ar  
    14     5    29 1   
    15     6     7 ar  
    16     6    49 1   
    17     7     8 ar  
    18     7    30 1   
    19     8     9 ar  
    20     8    31 1   
    21     9    24 1   
    22    10    14 1   
    23    10    17 1   
    24    10    32 1   
    25    10    51 1   
    26    11    18 1   
    27    11    22 1   
    28    11    33 1   
    29    11    34 1   
    30    12    13 1   
    31    12    22 1   
    32    12    35 1   
    33    12    36 1   
    34    13    37 1   
    35    13    38 1   
    36    14    15 1   
    37    14    39 1   
    38    14    50 1   
    39    15    16 1   
    40    15    40 1   
    41    15    41 1   
    42    16    25 1   
    43    16    42 1   
    44    16    43 1   
    45    17    25 1   
    46    17    44 1   
    47    17    45 1   
    48    18    46 1   
    49    18    47 1   
    50    19    49 1   
    51    20    49 1   
    52    21    49 1   
    53    22    50 1   
    54    23    48 1   
    55    48    52 1   
    56    48    53 1   
    57    48    54 1   
    58    50    55 1   
    59    50    56 1   
@<TRIPOS>SUBSTRUCTURE
     1 A1A         1 TEMP              0 ****  ****    0 ROOT
