@<TRIPOS>MOLECULE
A1A
   64    69     1     0     0
SMALL
No Charge or Current Charge


@<TRIPOS>ATOM
      1 N1         -17.5590    43.2730   -11.0360 nj         1 A1A      -0.414800
      2 N3         -22.9720    41.5040    -8.4820 na         1 A1A      -0.281300
      3 C4         -15.1590    44.2550   -12.8370 cy         1 A1A       0.157600
      4 C5         -14.2500    43.2940   -11.0530 cy         1 A1A       0.157600
      5 C6         -16.5410    42.3790   -11.7750 cy         1 A1A       0.114500
      6 C7         -19.0800    42.2800    -9.4220 ca         1 A1A      -0.227600
      7 C8         -19.3540    41.5960    -8.2150 ca         1 A1A       0.394900
      8 C10        -21.4600    42.3240    -9.7940 ca         1 A1A       0.018400
      9 C15        -25.5810    41.7760    -6.0150 ca         1 A1A      -0.092000
     10 C17        -25.3310    43.6860    -4.5110 ca         1 A1A       0.129100
     11 C20        -27.0980    45.5620    -0.8810 ca         1 A1A       0.405900
     12 C21        -27.7540    47.7130    -0.3310 ca         1 A1A       0.598300
     13 C22        -28.4100    49.9740     0.4030 c3         1 A1A       0.150900
     14 C24        -27.9540    46.9770    -2.6390 ca         1 A1A      -0.010000
     15 C26        -21.7780    44.8910    -4.5120 c3         1 A1A       0.142900
     16 C1         -17.6510    42.5780    -9.7870 c          1 A1A       0.629700
     17 C11        -21.6240    41.6560    -8.6010 ca         1 A1A       0.349500
     18 C12        -23.5840    42.0760    -9.5950 cc         1 A1A       0.432700
     19 C14        -24.2150    41.8410    -6.3430 ca         1 A1A      -0.125300
     20 C16        -26.1390    42.6900    -5.1060 ca         1 A1A      -0.180000
     21 C18        -27.2290    44.6080    -3.2220 c3         1 A1A       0.221900
     22 C19        -27.4350    45.7390    -2.2320 ca         1 A1A      -0.194300
     23 C2         -16.5640    44.3980   -10.6760 cy         1 A1A       0.114500
     24 C23        -28.1150    47.9780    -1.6700 ca         1 A1A      -0.250000
     25 C25        -23.9550    43.7550    -4.8340 ca         1 A1A       0.114100
     26 C27        -23.4050    42.8290    -5.7490 ca         1 A1A      -0.147000
     27 C3         -15.6430    43.5870   -11.5670 cy         1 A1A      -0.173000
     28 C9         -20.1750    42.6570   -10.2420 ca         1 A1A       0.017000
     29 N2         -20.6080    41.2830    -7.7990 nb         1 A1A      -0.675000
     30 N4         -22.6680    42.5970   -10.4350 nd         1 A1A      -0.563100
     31 N5         -27.2540    46.5240     0.0550 nb         1 A1A      -0.701000
     32 O1         -16.7780    42.2040    -9.0070 o          1 A1A      -0.594100
     33 O2         -13.8370    43.6200   -12.4700 oq         1 A1A      -0.445000
     34 O5         -23.1820    44.7390    -4.2380 os         1 A1A      -0.319100
     35 H3         -15.5640    43.8780   -13.7830 h1         1 A1A       0.058450
     36 H4         -15.1030    45.3500   -12.8040 h1         1 A1A       0.058450
     37 H5         -14.0340    42.2560   -10.7750 h1         1 A1A       0.058450
     38 H6         -13.8490    44.0200   -10.3370 h1         1 A1A       0.058450
     39 H7         -16.8280    42.1810   -12.8140 h1         1 A1A       0.064950
     40 H8         -16.2290    41.4540   -11.2720 h1         1 A1A       0.064950
     41 H9         -18.5530    41.2820    -7.5460 h4         1 A1A       0.038100
     42 H12        -24.4000    40.1790    -7.7130 h1         1 A1A       0.072700
     43 H13        -22.8810    40.2200    -6.8130 h1         1 A1A       0.072700
     44 H14        -26.2160    41.0160    -6.4660 ha         1 A1A       0.110000
     45 H18        -26.6900    44.6150    -0.5310 h4         1 A1A       0.023100
     46 H21        -28.4350    50.5620     1.3290 h1         1 A1A       0.045033
     47 H20        -27.7810    50.5090    -0.3210 h1         1 A1A       0.045033
     48 H19        -29.4340    49.9220     0.0090 h1         1 A1A       0.045033
     49 H23        -28.2240    47.1610    -3.6780 ha         1 A1A       0.122000
     50 H26        -21.3680    45.7310    -3.9370 h1         1 A1A       0.043700
     51 H25        -21.2250    43.9860    -4.2320 h1         1 A1A       0.043700
     52 H24        -21.6080    45.0950    -5.5770 h1         1 A1A       0.043700
     53 H11        -24.6590    42.0840    -9.7280 h5         1 A1A       0.066800
     54 H15        -27.1980    42.6090    -4.8790 ha         1 A1A       0.120000
     55 H16        -27.8780    44.7590    -4.0950 h1         1 A1A       0.040200
     56 H17        -27.5020    43.6550    -2.7500 h1         1 A1A       0.040200
     57 H1         -16.8620    45.3720   -11.0800 h1         1 A1A       0.064950
     58 H2         -16.2630    44.4840    -9.6240 h1         1 A1A       0.064950
     59 H22        -28.5150    48.9400    -1.9690 ha         1 A1A       0.128000
     60 H27        -22.3510    42.8610    -6.0080 ha         1 A1A       0.138000
     61 H10        -20.0520    43.1850   -11.1840 ha         1 A1A       0.139000
     62 C13        -23.6160    40.8470    -7.3340 c3         1 A1A       0.136900
     63 O3         -25.8480    44.6040    -3.6120 os         1 A1A      -0.321100
     64 O4         -27.8910    48.6570     0.6610 os         1 A1A      -0.442300
@<TRIPOS>BOND
     1     1     5 1   
     2     1    16 1   
     3     1    23 1   
     4     2    17 1   
     5     2    18 1   
     6     2    62 1   
     7     3    27 1   
     8     3    33 1   
     9     3    35 1   
    10     3    36 1   
    11     4    27 1   
    12     4    33 1   
    13     4    37 1   
    14     4    38 1   
    15     5    27 1   
    16     5    39 1   
    17     5    40 1   
    18     6     7 ar  
    19     6    16 1   
    20     6    28 ar  
    21     7    29 ar  
    22     7    41 1   
    23     8    17 ar  
    24     8    28 ar  
    25     8    30 1   
    26     9    19 ar  
    27     9    20 ar  
    28     9    44 1   
    29    10    20 ar  
    30    10    25 ar  
    31    10    63 1   
    32    11    22 ar  
    33    11    31 ar  
    34    11    45 1   
    35    12    24 ar  
    36    12    31 ar  
    37    12    64 1   
    38    13    46 1   
    39    13    47 1   
    40    13    48 1   
    41    13    64 1   
    42    14    22 ar  
    43    14    24 ar  
    44    14    49 1   
    45    15    34 1   
    46    15    50 1   
    47    15    51 1   
    48    15    52 1   
    49    16    32 2   
    50    17    29 ar  
    51    18    30 2   
    52    18    53 1   
    53    19    26 ar  
    54    19    62 1   
    55    20    54 1   
    56    21    22 1   
    57    21    55 1   
    58    21    56 1   
    59    21    63 1   
    60    23    27 1   
    61    23    57 1   
    62    23    58 1   
    63    24    59 1   
    64    25    26 ar  
    65    25    34 1   
    66    26    60 1   
    67    28    61 1   
    68    42    62 1   
    69    43    62 1   
@<TRIPOS>SUBSTRUCTURE
     1 A1A         1 TEMP              0 ****  ****    0 ROOT
