@<TRIPOS>MOLECULE
A1A
   36    37     1     0     0
SMALL
abcg2


@<TRIPOS>ATOM
      1 C1          22.4840     0.9310    28.8570 ca         1 A1A       0.354000
      2 C2          21.1920     1.2060    29.3500 ca         1 A1A      -0.198500
      3 C3          20.0700     0.9520    28.5900 ca         1 A1A      -0.043500
      4 C4          20.1520     0.4200    27.2990 ca         1 A1A      -0.086000
      5 C5          21.4330     0.1460    26.8100 ca         1 A1A      -0.043500
      6 C6          22.5670     0.3890    27.5570 ca         1 A1A      -0.198500
      7 C8          24.9040     0.8830    29.0640 c3         1 A1A       0.221600
      8 C9          23.4730     1.7680    30.9120 c3         1 A1A       0.221600
      9 C10         18.9700     0.1600    26.4930 cc         1 A1A      -0.112000
     10 C11         18.8360    -0.6710    25.4030 cd         1 A1A      -0.153000
     11 C12         17.5410    -0.6740    24.8580 cd         1 A1A      -0.090000
     12 C13         16.6610     0.1530    25.5190 cc         1 A1A      -0.216800
     13 C15         15.2540     0.4040    25.2660 ce         1 A1A       0.058600
     14 C16         14.6350    -0.1910    24.2160 cf         1 A1A      -0.334200
     15 C17         13.2390    -0.0270    23.8680 c          1 A1A       0.571100
     16 C19         14.5720     1.3380    26.2230 c3         1 A1A      -0.078900
     17 N7          23.5960     1.1790    29.5990 nh         1 A1A      -0.830400
     18 S14         17.4770     0.9450    26.8270 ss         1 A1A       0.207000
     19 H2          21.0540     1.6130    30.3420 ha         1 A1A       0.113500
     20 H3          19.1030     1.1660    29.0310 ha         1 A1A       0.110000
     21 H5          21.5570    -0.2490    25.8100 ha         1 A1A       0.110000
     22 H6          23.5270     0.1640    27.1150 ha         1 A1A       0.113500
     23 H8          25.6590     1.1300    29.8050 h1         1 A1A       0.036867
     24 H82         25.0170    -0.1760    28.8180 h1         1 A1A       0.036867
     25 H81         25.1240     1.4610    28.1620 h1         1 A1A       0.036867
     26 H9          24.4630     1.9080    31.3380 h1         1 A1A       0.036867
     27 H91         22.9850     2.7450    30.8800 h1         1 A1A       0.036867
     28 H92         22.9060     1.1320    31.5970 h1         1 A1A       0.036867
     29 H11         19.6430    -1.2790    25.0180 ha         1 A1A       0.136000
     30 H12         17.2660    -1.2820    24.0080 ha         1 A1A       0.136000
     31 H16         15.1950    -0.8490    23.5620 ha         1 A1A       0.196000
     32 H1          12.6370     0.6400    24.5050 h4         1 A1A      -0.019800
     33 H192        13.5190     1.4890    26.0120 hc         1 A1A       0.054033
     34 H191        14.6490     0.9600    27.2440 hc         1 A1A       0.054033
     35 H19         15.0520     2.3190    26.2030 hc         1 A1A       0.054033
     36 O1          12.7180    -0.5840    22.9190 o          1 A1A      -0.528100
@<TRIPOS>BOND
     1     1     2 ar  
     2     1     6 ar  
     3     1    17 1   
     4     2     3 ar  
     5     2    19 1   
     6     3     4 ar  
     7     3    20 1   
     8     4     5 ar  
     9     4     9 1   
    10     5     6 ar  
    11     5    21 1   
    12     6    22 1   
    13     7    17 1   
    14     7    23 1   
    15     7    24 1   
    16     7    25 1   
    17     8    17 1   
    18     8    26 1   
    19     8    27 1   
    20     8    28 1   
    21     9    10 2   
    22     9    18 1   
    23    10    11 1   
    24    10    29 1   
    25    11    12 2   
    26    11    30 1   
    27    12    13 1   
    28    12    18 1   
    29    13    14 2   
    30    13    16 1   
    31    14    15 1   
    32    14    31 1   
    33    15    32 1   
    34    15    36 2   
    35    16    33 1   
    36    16    34 1   
    37    16    35 1   
@<TRIPOS>SUBSTRUCTURE
     1 A1A         1 TEMP              0 ****  ****    0 ROOT
