@<TRIPOS>MOLECULE
A1A
   36    37     1     0     0
SMALL
No Charge or Current Charge


@<TRIPOS>ATOM
      1 C1          22.5140     0.9600    28.8260 ca         1 A1A       0.354000
      2 C2          21.2620     1.2940    29.3740 ca         1 A1A      -0.198500
      3 C3          20.0760     1.0730    28.6530 ca         1 A1A      -0.043500
      4 C4          20.1160     0.5060    27.3640 ca         1 A1A      -0.086000
      5 C5          21.3700     0.1760    26.8090 ca         1 A1A      -0.043500
      6 C6          22.5530     0.4000    27.5350 ca         1 A1A      -0.198500
      7 C8          24.9180     0.3530    29.3370 c3         1 A1A       0.221600
      8 C9          23.8070     2.2610    30.5700 c3         1 A1A       0.221600
      9 C10         18.8710     0.2870    26.6210 cc         1 A1A      -0.112000
     10 C11         18.7340    -0.7320    25.7110 cd         1 A1A      -0.153000
     11 C12         17.4380    -0.7760    25.1280 cd         1 A1A      -0.090000
     12 C13         16.5830     0.2030    25.5810 cc         1 A1A      -0.216800
     13 C15         15.1840     0.4080    25.2160 ce         1 A1A       0.058600
     14 C16         14.7700     0.3250    23.9200 cf         1 A1A      -0.334200
     15 C17         13.3760     0.4970    23.4430 c          1 A1A       0.571100
     16 C19         14.2290     0.6370    26.3790 c3         1 A1A      -0.078900
     17 N7          23.7100     1.1840    29.5560 nh         1 A1A      -0.830400
     18 S14         17.3780     1.1990    26.8090 ss         1 A1A       0.207000
     19 H2          21.1950     1.7180    30.3710 ha         1 A1A       0.113500
     20 H3          19.1240     1.3340    29.1080 ha         1 A1A       0.110000
     21 H5          21.4370    -0.2400    25.8070 ha         1 A1A       0.110000
     22 H6          23.5030     0.1470    27.0750 ha         1 A1A       0.113500
     23 H8          25.5570     0.3490    30.2310 h1         1 A1A       0.036867
     24 H82         24.6380    -0.6880    29.1270 h1         1 A1A       0.036867
     25 H81         25.5040     0.7390    28.4920 h1         1 A1A       0.036867
     26 H9          24.8500     2.5780    30.7050 h1         1 A1A       0.036867
     27 H91         23.2320     3.1420    30.2560 h1         1 A1A       0.036867
     28 H92         23.4220     1.9140    31.5380 h1         1 A1A       0.036867
     29 H11         19.5160    -1.4430    25.4650 ha         1 A1A       0.136000
     30 H12         17.1480    -1.5220    24.3940 ha         1 A1A       0.136000
     31 H16         15.5070     0.1290    23.1450 ha         1 A1A       0.196000
     32 H1          12.6030     0.7200    24.2100 h4         1 A1A      -0.019800
     33 H192        13.3130     0.0460    26.2710 hc         1 A1A       0.054033
     34 H191        14.6710     0.3450    27.3390 hc         1 A1A       0.054033
     35 H19         13.9430     1.6930    26.4520 hc         1 A1A       0.054033
     36 O1          13.0760     0.4040    22.2600 o          1 A1A      -0.528100
@<TRIPOS>BOND
     1     1     2 ar  
     2     1     6 ar  
     3     1    17 1   
     4     2     3 ar  
     5     2    19 1   
     6     3     4 ar  
     7     3    20 1   
     8     4     5 ar  
     9     4     9 1   
    10     5     6 ar  
    11     5    21 1   
    12     6    22 1   
    13     7    17 1   
    14     7    23 1   
    15     7    24 1   
    16     7    25 1   
    17     8    17 1   
    18     8    26 1   
    19     8    27 1   
    20     8    28 1   
    21     9    10 2   
    22     9    18 1   
    23    10    11 1   
    24    10    29 1   
    25    11    12 2   
    26    11    30 1   
    27    12    13 1   
    28    12    18 1   
    29    13    14 2   
    30    13    16 1   
    31    14    15 1   
    32    14    31 1   
    33    15    32 1   
    34    15    36 2   
    35    16    33 1   
    36    16    34 1   
    37    16    35 1   
@<TRIPOS>SUBSTRUCTURE
     1 A1A         1 TEMP              0 ****  ****    0 ROOT
