@<TRIPOS>MOLECULE
A1A
   33    35     1     0     0
SMALL
No Charge or Current Charge


@<TRIPOS>ATOM
      1 C10        137.4160   139.3880   147.8840 ca         1 A1A       0.372900
      2 C13        138.7730   135.9310   147.8830 ca         1 A1A      -0.133500
      3 C20        141.1680   135.7310   147.3910 ca         1 A1A      -0.112000
      4 C21        141.3090   137.1220   147.4730 ca         1 A1A      -0.078000
      5 C22        140.1940   137.9160   147.7800 ca         1 A1A      -0.112000
      6 C01        134.9880   141.8900   149.0310 c3         1 A1A      -0.158400
      7 C02        136.0200   141.1770   148.1790 ca         1 A1A       0.175300
      8 C03        136.4660   141.7140   146.9590 ca         1 A1A      -0.222000
      9 C04        137.4300   140.9880   146.2290 ca         1 A1A       0.051300
     10 C05        137.9620   141.4890   144.8800 c3         1 A1A       0.267700
     11 C12        138.9290   137.3370   147.9960 ca         1 A1A       0.295000
     12 C14        137.4750   135.2640   148.0610 cc         1 A1A       0.455000
     13 C19        139.9120   135.1400   147.6000 ca         1 A1A      -0.055000
     14 F06        138.2250   142.8160   144.9070 f          1 A1A      -0.101000
     15 F07        139.1090   140.8750   144.5030 f          1 A1A      -0.101000
     16 F08        137.0640   141.2860   143.8900 f          1 A1A      -0.101000
     17 N09        137.8990   139.8100   146.6990 nb         1 A1A      -0.189000
     18 N11        137.8710   138.1720   148.3760 nu         1 A1A      -0.962900
     19 N15        136.2420   135.8310   147.9320 na         1 A1A      -0.198700
     20 N16        135.2630   134.9100   148.1120 nc         1 A1A      -0.205800
     21 N17        135.9070   133.7970   148.3350 nd         1 A1A      -0.043000
     22 N18        137.2710   133.9810   148.2940 nd         1 A1A      -0.394000
     23 N23        136.4980   140.0060   148.6450 nb         1 A1A      -0.232000
     24 H2         142.2810   137.5840   147.3130 ha         1 A1A       0.124000
     25 H3         140.3180   138.9910   147.8740 ha         1 A1A       0.125000
     26 H4         134.3500   141.1780   149.5680 hc         1 A1A       0.064367
     27 H5         135.4740   142.5330   149.7750 hc         1 A1A       0.064367
     28 H6         134.3340   142.5220   148.4180 hc         1 A1A       0.064367
     29 H7         136.0750   142.6590   146.5900 ha         1 A1A       0.156000
     30 H8         139.8240   134.0570   147.5210 ha         1 A1A       0.148000
     31 H9         137.4510   137.9300   149.2760 hn         1 A1A       0.514000
     32 H10        136.0560   136.8040   147.7210 hn         1 A1A       0.396000
     33 H1         142.0310   135.1090   147.1630 ha         1 A1A       0.126000
@<TRIPOS>BOND
     1     1    17 ar  
     2     1    18 1   
     3     1    23 ar  
     4     2    11 ar  
     5     2    12 1   
     6     2    13 ar  
     7     3     4 ar  
     8     3    13 ar  
     9     3    33 1   
    10     4     5 ar  
    11     4    24 1   
    12     5    11 ar  
    13     5    25 1   
    14     6     7 1   
    15     6    26 1   
    16     6    27 1   
    17     6    28 1   
    18     7     8 ar  
    19     7    23 ar  
    20     8     9 ar  
    21     8    29 1   
    22     9    10 1   
    23     9    17 ar  
    24    10    14 1   
    25    10    15 1   
    26    10    16 1   
    27    11    18 1   
    28    12    19 1   
    29    12    22 2   
    30    13    30 1   
    31    18    31 1   
    32    19    20 1   
    33    19    32 1   
    34    20    21 2   
    35    21    22 1   
@<TRIPOS>SUBSTRUCTURE
     1 A1A         1 TEMP              0 ****  ****    0 ROOT
