@<TRIPOS>MOLECULE
A1A
   52    55     1     0     0
SMALL
abcg2


@<TRIPOS>ATOM
      1 C01        128.6710   105.0710   105.5720 c3         1 A1A       0.217100
      2 C02        127.8340   104.2090   107.8380 c5         1 A1A       0.138200
      3 C03        128.1760   105.4350   108.6890 c6         1 A1A      -0.069900
      4 C04        127.1620   105.6970   109.7930 c6         1 A1A       0.167300
      5 C05        125.4290   104.5650   108.5940 c6         1 A1A       0.167300
      6 C06        126.3550   104.2630   107.4270 c6         1 A1A      -0.069900
      7 C08        123.5410   106.7020   109.7520 c6         1 A1A      -0.058700
      8 C09        123.7200   107.9260   108.8580 c6         1 A1A      -0.108400
      9 C10        122.3710   108.5030   108.4610 c6         1 A1A       0.154600
     10 C11        121.3200   107.6760   110.3810 c6         1 A1A       0.154600
     11 C12        122.6050   107.0570   110.9060 c6         1 A1A      -0.108400
     12 C14        129.3150   102.9310   106.5860 ca         1 A1A       0.391000
     13 C15        130.1520   102.4250   105.5770 ca         1 A1A      -0.201000
     14 C16        130.6760   101.1630   105.7470 ca         1 A1A       0.015000
     15 C17        130.4010   100.3770   106.8830 ca         1 A1A      -0.285300
     16 C18        129.5750   100.8760   107.8730 ca         1 A1A       0.069000
     17 C19        129.0400   102.1420   107.7110 ca         1 A1A      -0.299600
     18 C20        128.1430   102.8940   108.5690 c          1 A1A       0.597700
     19 F01        130.7100    98.4110   108.1350 f          1 A1A      -0.116667
     20 F02        132.3250    99.0230   106.8480 f          1 A1A      -0.116667
     21 F03        130.5330    98.1990   106.0030 f          1 A1A      -0.116667
     22 N01        125.8150   105.7940   109.2610 n3         1 A1A      -0.724600
     23 N02        128.6970   104.1220   106.6550 nh         1 A1A      -0.803400
     24 O01        127.7100   102.5610   109.6520 o          1 A1A      -0.510100
     25 O02        121.5700   108.8120   109.5820 os         1 A1A      -0.451000
     26 H1         128.2670   106.0190   105.9180 h1         1 A1A       0.046033
     27 H2         129.6810   105.2620   105.2090 h1         1 A1A       0.046033
     28 H3         128.0610   104.7280   104.7320 h1         1 A1A       0.046033
     29 H4         129.1770   105.3340   109.1160 hc         1 A1A       0.056700
     30 H5         128.1980   106.3110   108.0340 hc         1 A1A       0.056700
     31 H6         127.2420   104.9330   110.5800 h1         1 A1A       0.044950
     32 H7         127.4170   106.6500   110.2640 h1         1 A1A       0.044950
     33 H8         124.4200   104.6760   108.1930 h1         1 A1A       0.044950
     34 H9         125.3900   103.7160   109.2940 h1         1 A1A       0.044950
     35 H10        126.2360   105.0570   106.6850 hc         1 A1A       0.056700
     36 H11        126.0580   103.3280   106.9450 hc         1 A1A       0.056700
     37 H12        124.6750   105.3510   110.9940 h1         1 A1A       0.035200
     38 H13        125.3270   106.9800   110.8820 h1         1 A1A       0.035200
     39 H14        123.0480   105.9180   109.1630 hc         1 A1A       0.045700
     40 H15        124.2800   107.6680   107.9570 hc         1 A1A       0.052450
     41 H16        124.3040   108.6840   109.3920 hc         1 A1A       0.052450
     42 H17        122.4960   109.4290   107.8970 h1         1 A1A       0.042200
     43 H18        121.8480   107.7880   107.8070 h1         1 A1A       0.042200
     44 H19        120.6800   108.0010   111.2030 h1         1 A1A       0.042200
     45 H20        120.7610   106.9220   109.8070 h1         1 A1A       0.042200
     46 H21        122.3610   106.1680   111.4940 hc         1 A1A       0.052450
     47 H22        123.1020   107.7620   111.5820 hc         1 A1A       0.052450
     48 H23        130.3840   102.9920   104.6860 ha         1 A1A       0.127000
     49 H24        131.3200   100.7720   104.9680 ha         1 A1A       0.124000
     50 H25        129.3300   100.3050   108.7600 ha         1 A1A       0.144000
     51 C07        124.8690   106.1800   110.2900 c3         1 A1A       0.173800
     52 C13        130.9870    99.0110   106.9730 c3         1 A1A       0.366300
@<TRIPOS>BOND
     1     1    23 1   
     2     1    26 1   
     3     1    27 1   
     4     1    28 1   
     5     2     3 1   
     6     2     6 1   
     7     2    18 1   
     8     2    23 1   
     9     3     4 1   
    10     3    29 1   
    11     3    30 1   
    12     4    22 1   
    13     4    31 1   
    14     4    32 1   
    15     5     6 1   
    16     5    22 1   
    17     5    33 1   
    18     5    34 1   
    19     6    35 1   
    20     6    36 1   
    21     7     8 1   
    22     7    11 1   
    23     7    39 1   
    24     7    51 1   
    25     8     9 1   
    26     8    40 1   
    27     8    41 1   
    28     9    25 1   
    29     9    42 1   
    30     9    43 1   
    31    10    11 1   
    32    10    25 1   
    33    10    44 1   
    34    10    45 1   
    35    11    46 1   
    36    11    47 1   
    37    12    13 ar  
    38    12    17 ar  
    39    12    23 1   
    40    13    14 ar  
    41    13    48 1   
    42    14    15 ar  
    43    14    49 1   
    44    15    16 ar  
    45    15    52 1   
    46    16    17 ar  
    47    16    50 1   
    48    17    18 1   
    49    18    24 2   
    50    19    52 1   
    51    20    52 1   
    52    21    52 1   
    53    22    51 1   
    54    37    51 1   
    55    38    51 1   
@<TRIPOS>SUBSTRUCTURE
     1 A1A         1 TEMP              0 ****  ****    0 ROOT
