@<TRIPOS>MOLECULE
A1A
   64    69     1     0     0
SMALL
abcg2


@<TRIPOS>ATOM
      1 N1         -17.2020    43.8770   -10.2470 nj         1 A1A      -0.414800
      2 N3         -22.5710    41.4580    -8.1580 na         1 A1A      -0.281300
      3 C4         -15.8690    44.1110   -13.3110 cy         1 A1A       0.157600
      4 C5         -14.9770    42.4890   -12.4230 cy         1 A1A       0.157600
      5 C6         -17.4040    43.0220   -11.4170 cy         1 A1A       0.114500
      6 C7         -19.0230    43.2030    -8.8170 ca         1 A1A      -0.227600
      7 C8         -19.2370    42.5120    -7.6130 ca         1 A1A       0.394900
      8 C10        -21.2370    42.6560    -9.4380 ca         1 A1A       0.018400
      9 C15        -25.2870    41.7510    -6.1340 ca         1 A1A      -0.092000
     10 C17        -25.2440    43.4650    -4.4380 ca         1 A1A       0.129100
     11 C20        -27.9850    45.4190    -1.3900 ca         1 A1A       0.405900
     12 C21        -28.0970    47.6320    -0.8750 ca         1 A1A       0.598300
     13 C22        -28.2590    49.8900    -0.1710 c3         1 A1A       0.150900
     14 C24        -27.3460    46.9880    -3.0390 ca         1 A1A      -0.010000
     15 C26        -21.8110    44.1760    -3.4760 c3         1 A1A       0.142900
     16 C1         -17.7060    43.8750    -9.0050 c          1 A1A       0.629700
     17 C11        -21.3130    41.9820    -8.2070 ca         1 A1A       0.349500
     18 C12        -23.1820    41.8400    -9.3120 cc         1 A1A       0.432700
     19 C14        -23.9100    41.6670    -6.1140 ca         1 A1A      -0.125300
     20 C16        -25.9540    42.6450    -5.2950 ca         1 A1A      -0.180000
     21 C18        -27.1950    44.5370    -3.6080 c3         1 A1A       0.221900
     22 C19        -27.5200    45.6560    -2.6750 ca         1 A1A      -0.194300
     23 C2         -15.8620    44.2870   -10.6390 cy         1 A1A       0.114500
     24 C23        -27.6340    47.9980    -2.1430 ca         1 A1A      -0.250000
     25 C25        -23.8340    43.3780    -4.4060 ca         1 A1A       0.114100
     26 C27        -23.1860    42.4830    -5.2380 ca         1 A1A      -0.147000
     27 C3         -16.0300    43.4770   -11.9320 cy         1 A1A      -0.173000
     28 C9         -20.0460    43.2880    -9.7550 ca         1 A1A       0.017000
     29 N2         -20.3620    41.8930    -7.2960 nb         1 A1A      -0.675000
     30 N4         -22.4300    42.5480   -10.1060 nd         1 A1A      -0.563100
     31 N5         -28.2690    46.3720    -0.5140 nb         1 A1A      -0.701000
     32 O1         -17.1190    44.4030    -8.0690 o          1 A1A      -0.594100
     33 O2         -14.9000    43.1320   -13.7010 oq         1 A1A      -0.445000
     34 O5         -23.2220    44.2010    -3.5360 os         1 A1A      -0.319100
     35 H3         -16.7650    44.0900   -13.9380 h1         1 A1A       0.058450
     36 H4         -15.4630    45.1280   -13.3040 h1         1 A1A       0.058450
     37 H5         -15.3110    41.4490   -12.4930 h1         1 A1A       0.058450
     38 H6         -14.0290    42.5200   -11.8770 h1         1 A1A       0.058450
     39 H7         -18.2440    43.3070   -12.0520 h1         1 A1A       0.064950
     40 H8         -17.4780    41.9580   -11.1790 h1         1 A1A       0.064950
     41 H9         -18.4400    42.4590    -6.8800 h4         1 A1A       0.038100
     42 H12        -23.8600    40.0000    -7.4650 h1         1 A1A       0.072700
     43 H13        -22.3840    40.2020    -6.5350 h1         1 A1A       0.072700
     44 H14        -25.8630    41.1240    -6.8020 ha         1 A1A       0.110000
     45 H18        -28.1430    44.3980    -1.0530 h4         1 A1A       0.023100
     46 H21        -28.5650    50.4040     0.7360 h1         1 A1A       0.045033
     47 H20        -27.2210    50.1500    -0.3910 h1         1 A1A       0.045033
     48 H19        -28.8930    50.2250    -0.9960 h1         1 A1A       0.045033
     49 H23        -26.9900    47.2420    -4.0300 ha         1 A1A       0.122000
     50 H26        -21.5210    44.9130    -2.7310 h1         1 A1A       0.043700
     51 H25        -21.4310    43.1970    -3.1700 h1         1 A1A       0.043700
     52 H24        -21.3560    44.4450    -4.4330 h1         1 A1A       0.043700
     53 H11        -24.2040    41.5530    -9.5170 h5         1 A1A       0.066800
     54 H15        -27.0350    42.6830    -5.3310 ha         1 A1A       0.120000
     55 H16        -27.5420    44.7720    -4.6200 h1         1 A1A       0.040200
     56 H17        -27.6930    43.6140    -3.2910 h1         1 A1A       0.040200
     57 H1         -15.7400    45.3640   -10.7680 h1         1 A1A       0.064950
     58 H2         -15.0800    43.9170    -9.9700 h1         1 A1A       0.064950
     59 H22        -27.5020    49.0310    -2.4320 ha         1 A1A       0.128000
     60 H27        -22.1060    42.4030    -5.2220 ha         1 A1A       0.138000
     61 H10        -19.9400    43.8430   -10.6790 ha         1 A1A       0.139000
     62 C13        -23.1800    40.7420    -7.0480 c3         1 A1A       0.136900
     63 O3         -25.7840    44.3700    -3.6000 os         1 A1A      -0.321100
     64 O4         -28.4140    48.5050     0.0840 os         1 A1A      -0.442300
@<TRIPOS>BOND
     1     1     5 1   
     2     1    16 1   
     3     1    23 1   
     4     2    17 1   
     5     2    18 1   
     6     2    62 1   
     7     3    27 1   
     8     3    33 1   
     9     3    35 1   
    10     3    36 1   
    11     4    27 1   
    12     4    33 1   
    13     4    37 1   
    14     4    38 1   
    15     5    27 1   
    16     5    39 1   
    17     5    40 1   
    18     6     7 ar  
    19     6    16 1   
    20     6    28 ar  
    21     7    29 ar  
    22     7    41 1   
    23     8    17 ar  
    24     8    28 ar  
    25     8    30 1   
    26     9    19 ar  
    27     9    20 ar  
    28     9    44 1   
    29    10    20 ar  
    30    10    25 ar  
    31    10    63 1   
    32    11    22 ar  
    33    11    31 ar  
    34    11    45 1   
    35    12    24 ar  
    36    12    31 ar  
    37    12    64 1   
    38    13    46 1   
    39    13    47 1   
    40    13    48 1   
    41    13    64 1   
    42    14    22 ar  
    43    14    24 ar  
    44    14    49 1   
    45    15    34 1   
    46    15    50 1   
    47    15    51 1   
    48    15    52 1   
    49    16    32 2   
    50    17    29 ar  
    51    18    30 2   
    52    18    53 1   
    53    19    26 ar  
    54    19    62 1   
    55    20    54 1   
    56    21    22 1   
    57    21    55 1   
    58    21    56 1   
    59    21    63 1   
    60    23    27 1   
    61    23    57 1   
    62    23    58 1   
    63    24    59 1   
    64    25    26 ar  
    65    25    34 1   
    66    26    60 1   
    67    28    61 1   
    68    42    62 1   
    69    43    62 1   
@<TRIPOS>SUBSTRUCTURE
     1 A1A         1 TEMP              0 ****  ****    0 ROOT
