@<TRIPOS>MOLECULE
A1A
   70    74     1     0     0
SMALL
No Charge or Current Charge


@<TRIPOS>ATOM
      1 C4         -32.3350     0.1350    -3.6280 ca         1 A1A      -0.039000
      2 C5         -33.1410     0.4550    -2.5150 ca         1 A1A      -0.147200
      3 C6         -33.6510     1.7640    -2.3930 ca         1 A1A      -0.137000
      4 C7         -33.3620     2.7390    -3.3690 ca         1 A1A       0.118100
      5 C13        -31.1200     0.7200    -5.8180 c5         1 A1A       0.327400
      6 C17        -29.8030    -2.7080    -6.0170 cc         1 A1A      -0.289000
      7 C20        -32.2350    -1.3190    -6.7890 c          1 A1A       0.566200
      8 C22        -29.0760    -0.3570    -5.2150 c5         1 A1A       0.152900
      9 C16        -30.0440    -1.3800    -5.7820 cd         1 A1A       0.064400
     10 C18        -30.8560    -3.4430    -6.6620 cc         1 A1A      -0.076000
     11 C19        -32.0140    -2.7700    -7.0310 cd         1 A1A      -0.336200
     12 C2         -32.5590     2.4090    -4.4900 ca         1 A1A      -0.001300
     13 C27        -27.5980     2.3740    -5.4930 c3         1 A1A       0.095600
     14 C29        -28.3150     4.4660    -4.4350 ca         1 A1A       0.575300
     15 C3         -32.0290     1.0940    -4.6240 ca         1 A1A      -0.085300
     16 C30        -28.4950     5.8440    -4.5940 ca         1 A1A      -0.185000
     17 C31        -29.3640     6.5200    -3.7300 ca         1 A1A      -0.041000
     18 C32        -30.0120     5.7840    -2.7230 ca         1 A1A      -0.134000
     19 C33        -30.8830     6.4440    -1.8460 ca         1 A1A      -0.092000
     20 C34        -31.5240     5.7330    -0.8280 ca         1 A1A      -0.178000
     21 C35        -31.3000     4.3480    -0.6740 ca         1 A1A       0.129100
     22 C36        -30.4250     3.6640    -1.5600 ca         1 A1A      -0.000300
     23 C37        -29.7720     4.3890    -2.6010 ca         1 A1A       0.346000
     24 C39        -30.1760     2.1480    -1.3690 c3         1 A1A      -0.176100
     25 C40        -28.9900     1.9320    -0.4150 c          1 A1A       0.724000
     26 C44        -32.7010     4.2670     1.3710 c3         1 A1A       0.154900
     27 C45        -28.7430    -0.6340    -3.7320 c3         1 A1A      -0.111100
     28 C9         -34.7160     4.4530    -2.1910 c3         1 A1A       0.150900
     29 N10        -33.4340    -0.5830    -1.4680 no         1 A1A       0.691200
     30 N15        -31.1800    -0.7020    -6.1110 n          1 A1A      -0.285000
     31 N24        -29.7160     0.9760    -5.4260 n          1 A1A      -0.435800
     32 N38        -28.9300     3.7650    -3.4630 nb         1 A1A      -0.726000
     33 O11        -34.1730    -0.2730    -0.5250 o          1 A1A      -0.390500
     34 O12        -32.9200    -1.7030    -1.5930 o          1 A1A      -0.390500
     35 O21        -33.2410    -0.7240    -7.1450 o          1 A1A      -0.565000
     36 O26        -29.4940     2.6530    -6.9740 o          1 A1A      -0.579100
     37 O28        -27.4710     3.8110    -5.3040 os         1 A1A      -0.450300
     38 O41        -29.2120     1.9100     0.7860 o          1 A1A      -0.727500
     39 O42        -27.8630     1.8850    -0.8840 o          1 A1A      -0.727500
     40 O43        -31.9230     3.6370     0.3380 os         1 A1A      -0.307100
     41 O8         -33.8470     4.0320    -3.2560 os         1 A1A      -0.344100
     42 H1         -31.9370    -0.8730    -3.7140 ha         1 A1A       0.165000
     43 H2         -34.2610     2.0160    -1.5300 ha         1 A1A       0.146000
     44 H14        -31.3670     1.2500    -6.7450 h2         1 A1A       0.088700
     45 H3         -28.8670    -3.1910    -5.7460 ha         1 A1A       0.206000
     46 H23        -28.1420    -0.4300    -5.7900 h1         1 A1A       0.058700
     47 H4         -32.3120     3.1020    -6.5600 hc         1 A1A       0.058367
     48 H5         -32.9700     4.3220    -5.5050 hc         1 A1A       0.058367
     49 H6         -31.2620     3.9160    -5.3800 hc         1 A1A       0.058367
     50 H7         -30.7250    -4.5050    -6.8690 ha         1 A1A       0.180000
     51 H8         -32.8300    -3.2720    -7.5370 ha         1 A1A       0.201000
     52 H9         -27.4500     1.8480    -4.5440 h1         1 A1A       0.079200
     53 H10        -26.8440     2.0040    -6.1980 h1         1 A1A       0.079200
     54 H11        -27.9740     6.3720    -5.3870 ha         1 A1A       0.120000
     55 H12        -29.5280     7.5900    -3.8400 ha         1 A1A       0.102000
     56 H13        -31.0630     7.5130    -1.9490 ha         1 A1A       0.094000
     57 H15        -32.1920     6.2760    -0.1660 ha         1 A1A       0.102000
     58 H16        -31.0790     1.7110    -0.9320 hc         1 A1A       0.042200
     59 H17        -29.9550     1.7130    -2.3480 hc         1 A1A       0.042200
     60 H18        -33.0670     3.5140     2.0800 h1         1 A1A       0.028367
     61 H19        -32.0930     4.9920     1.9270 h1         1 A1A       0.028367
     62 H20        -33.5700     4.7850     0.9480 h1         1 A1A       0.028367
     63 H21        -28.2780    -1.6190    -3.6150 hc         1 A1A       0.076367
     64 H22        -28.0480     0.1070    -3.3270 hc         1 A1A       0.076367
     65 H24        -29.6430    -0.6180    -3.1080 hc         1 A1A       0.076367
     66 H25        -34.9710     5.5140    -2.3070 h1         1 A1A       0.040367
     67 H26        -35.6500     3.8760    -2.1980 h1         1 A1A       0.040367
     68 H27        -34.2300     4.3270    -1.2170 h1         1 A1A       0.040367
     69 C1         -32.2590     3.4900    -5.5370 c3         1 A1A      -0.059800
     70 C25        -28.9910     2.0000    -6.0660 c          1 A1A       0.603100
@<TRIPOS>BOND
     1     1     2 ar  
     2     1    15 ar  
     3     1    42 1   
     4     2     3 ar  
     5     2    29 1   
     6     3     4 ar  
     7     3    43 1   
     8     4    12 ar  
     9     4    41 1   
    10     5    15 1   
    11     5    30 1   
    12     5    31 1   
    13     5    44 1   
    14     6     9 2   
    15     6    10 1   
    16     6    45 1   
    17     7    11 1   
    18     7    30 1   
    19     7    35 2   
    20     8     9 1   
    21     8    27 1   
    22     8    31 1   
    23     8    46 1   
    24     9    30 1   
    25    10    11 2   
    26    10    50 1   
    27    11    51 1   
    28    12    15 ar  
    29    12    69 1   
    30    13    37 1   
    31    13    52 1   
    32    13    53 1   
    33    13    70 1   
    34    14    16 ar  
    35    14    32 ar  
    36    14    37 1   
    37    16    17 ar  
    38    16    54 1   
    39    17    18 ar  
    40    17    55 1   
    41    18    19 ar  
    42    18    23 ar  
    43    19    20 ar  
    44    19    56 1   
    45    20    21 ar  
    46    20    57 1   
    47    21    22 ar  
    48    21    40 1   
    49    22    23 ar  
    50    22    24 1   
    51    23    32 ar  
    52    24    25 1   
    53    24    58 1   
    54    24    59 1   
    55    25    38 1   
    56    25    39 1   
    57    26    40 1   
    58    26    60 1   
    59    26    61 1   
    60    26    62 1   
    61    27    63 1   
    62    27    64 1   
    63    27    65 1   
    64    28    41 1   
    65    28    66 1   
    66    28    67 1   
    67    28    68 1   
    68    29    33 1   
    69    29    34 1   
    70    31    70 1   
    71    36    70 2   
    72    47    69 1   
    73    48    69 1   
    74    49    69 1   
@<TRIPOS>SUBSTRUCTURE
     1 A1A         1 TEMP              0 ****  ****    0 ROOT
