@<TRIPOS>MOLECULE
A1A
   70    74     1     0     0
SMALL
abcg2


@<TRIPOS>ATOM
      1 C4         -32.5140     0.6040    -3.7470 ca         1 A1A      -0.039000
      2 C5         -33.5610     0.9380    -2.9170 ca         1 A1A      -0.147200
      3 C6         -34.6220     1.7210    -3.3460 ca         1 A1A      -0.137000
      4 C7         -34.6260     2.1690    -4.6580 ca         1 A1A       0.118100
      5 C13        -31.3530     0.6880    -5.9450 c5         1 A1A       0.327400
      6 C17        -29.6650    -2.5070    -5.5930 cc         1 A1A      -0.289000
      7 C20        -32.1660    -1.5630    -6.5940 c          1 A1A       0.566200
      8 C22        -29.1640    -0.0270    -5.1180 c5         1 A1A       0.152900
      9 C16        -29.9830    -1.1900    -5.5850 cd         1 A1A       0.064400
     10 C18        -30.6340    -3.4020    -6.1030 cc         1 A1A      -0.076000
     11 C19        -31.8290    -2.9590    -6.5820 cd         1 A1A      -0.336200
     12 C2         -33.5720     1.8490    -5.5400 ca         1 A1A      -0.001300
     13 C27        -28.2070     2.7030    -5.4110 c3         1 A1A       0.095600
     14 C29        -28.3220     4.6970    -4.1880 ca         1 A1A       0.575300
     15 C3         -32.5220     1.0700    -5.0560 ca         1 A1A      -0.085300
     16 C30        -28.0190     6.0820    -4.1270 ca         1 A1A      -0.185000
     17 C31        -28.3070     6.7270    -2.9660 ca         1 A1A      -0.041000
     18 C32        -28.8830     6.0220    -1.8810 ca         1 A1A      -0.134000
     19 C33        -29.1770     6.6340    -0.6540 ca         1 A1A      -0.092000
     20 C34        -29.7140     5.9050     0.3750 ca         1 A1A      -0.178000
     21 C35        -29.9810     4.5330     0.1970 ca         1 A1A       0.129100
     22 C36        -29.7340     3.8900    -1.0090 ca         1 A1A      -0.000300
     23 C37        -29.1530     4.6400    -2.0530 ca         1 A1A       0.346000
     24 C39        -30.0460     2.4370    -1.1560 c3         1 A1A      -0.176100
     25 C40        -28.9800     1.5000    -0.5300 c          1 A1A       0.724000
     26 C44        -30.7670     4.3360     2.4400 c3         1 A1A       0.154900
     27 C45        -28.7690    -0.1630    -3.6520 c3         1 A1A      -0.111100
     28 C9         -36.7310     3.2290    -4.3470 c3         1 A1A       0.150900
     29 N10        -33.5640     0.4520    -1.5470 no         1 A1A       0.691200
     30 N15        -31.1830    -0.7550    -6.0360 n          1 A1A      -0.285000
     31 N24        -30.0540     1.0950    -5.4260 n          1 A1A      -0.435800
     32 N38        -28.8600     4.0180    -3.2280 nb         1 A1A      -0.726000
     33 O11        -34.4220     0.8600    -0.7990 o          1 A1A      -0.390500
     34 O12        -32.7090    -0.3390    -1.2220 o          1 A1A      -0.390500
     35 O21        -33.1930    -1.0650    -7.0400 o          1 A1A      -0.565000
     36 O26        -30.4760     3.2370    -5.9390 o          1 A1A      -0.579100
     37 O28        -27.9910     4.0870    -5.3370 os         1 A1A      -0.450300
     38 O41        -29.3790     0.3700    -0.1840 o          1 A1A      -0.727500
     39 O42        -27.8170     1.9390    -0.4630 o          1 A1A      -0.727500
     40 O43        -30.4870     3.7620     1.1800 os         1 A1A      -0.307100
     41 O8         -35.6200     2.9150    -5.1640 os         1 A1A      -0.344100
     42 H1         -31.7040    -0.0110    -3.3850 ha         1 A1A       0.165000
     43 H2         -35.4250     1.9620    -2.6660 ha         1 A1A       0.146000
     44 H14        -31.4930     1.0930    -6.9490 h2         1 A1A       0.088700
     45 H3         -28.7070    -2.8480    -5.2290 ha         1 A1A       0.206000
     46 H23        -28.2590     0.0300    -5.7320 h1         1 A1A       0.058700
     47 H4         -33.5460     1.4900    -7.6480 hc         1 A1A       0.058367
     48 H5         -34.5170     2.8780    -7.1860 hc         1 A1A       0.058367
     49 H6         -32.7630     2.9890    -7.1640 hc         1 A1A       0.058367
     50 H7         -30.4150    -4.4620    -6.1200 ha         1 A1A       0.180000
     51 H8         -32.5610    -3.6480    -6.9820 ha         1 A1A       0.201000
     52 H9         -27.7720     2.1910    -4.5540 h1         1 A1A       0.079200
     53 H10        -27.6790     2.3610    -6.3070 h1         1 A1A       0.079200
     54 H11        -27.5730     6.5870    -4.9730 ha         1 A1A       0.120000
     55 H12        -28.0930     7.7830    -2.8570 ha         1 A1A       0.102000
     56 H13        -28.9690     7.6890    -0.5200 ha         1 A1A       0.094000
     57 H15        -29.9210     6.3950     1.3160 ha         1 A1A       0.102000
     58 H16        -31.0260     2.2100    -0.7320 hc         1 A1A       0.042200
     59 H17        -30.1080     2.1880    -2.2190 hc         1 A1A       0.042200
     60 H18        -31.1690     3.5370     3.0580 h1         1 A1A       0.028367
     61 H19        -29.8680     4.7310     2.9210 h1         1 A1A       0.028367
     62 H20        -31.5110     5.1340     2.3730 h1         1 A1A       0.028367
     63 H21        -28.1430    -1.0460    -3.5310 hc         1 A1A       0.076367
     64 H22        -28.1940     0.6920    -3.3030 hc         1 A1A       0.076367
     65 H24        -29.6360    -0.2680    -3.0030 hc         1 A1A       0.076367
     66 H25        -37.4060     3.8180    -4.9620 h1         1 A1A       0.040367
     67 H26        -37.2540     2.3310    -4.0090 h1         1 A1A       0.040367
     68 H27        -36.4420     3.8210    -3.4750 h1         1 A1A       0.040367
     69 C1         -33.6080     2.3310    -6.9590 c3         1 A1A      -0.059800
     70 C25        -29.6820     2.3860    -5.5910 c          1 A1A       0.603100
@<TRIPOS>BOND
     1     1     2 ar  
     2     1    15 ar  
     3     1    42 1   
     4     2     3 ar  
     5     2    29 1   
     6     3     4 ar  
     7     3    43 1   
     8     4    12 ar  
     9     4    41 1   
    10     5    15 1   
    11     5    30 1   
    12     5    31 1   
    13     5    44 1   
    14     6     9 2   
    15     6    10 1   
    16     6    45 1   
    17     7    11 1   
    18     7    30 1   
    19     7    35 2   
    20     8     9 1   
    21     8    27 1   
    22     8    31 1   
    23     8    46 1   
    24     9    30 1   
    25    10    11 2   
    26    10    50 1   
    27    11    51 1   
    28    12    15 ar  
    29    12    69 1   
    30    13    37 1   
    31    13    52 1   
    32    13    53 1   
    33    13    70 1   
    34    14    16 ar  
    35    14    32 ar  
    36    14    37 1   
    37    16    17 ar  
    38    16    54 1   
    39    17    18 ar  
    40    17    55 1   
    41    18    19 ar  
    42    18    23 ar  
    43    19    20 ar  
    44    19    56 1   
    45    20    21 ar  
    46    20    57 1   
    47    21    22 ar  
    48    21    40 1   
    49    22    23 ar  
    50    22    24 1   
    51    23    32 ar  
    52    24    25 1   
    53    24    58 1   
    54    24    59 1   
    55    25    38 1   
    56    25    39 1   
    57    26    40 1   
    58    26    60 1   
    59    26    61 1   
    60    26    62 1   
    61    27    63 1   
    62    27    64 1   
    63    27    65 1   
    64    28    41 1   
    65    28    66 1   
    66    28    67 1   
    67    28    68 1   
    68    29    33 1   
    69    29    34 1   
    70    31    70 1   
    71    36    70 2   
    72    47    69 1   
    73    48    69 1   
    74    49    69 1   
@<TRIPOS>SUBSTRUCTURE
     1 A1A         1 TEMP              0 ****  ****    0 ROOT
