@<TRIPOS>MOLECULE
A1A
   93    95     1     0     0
SMALL
No Charge or Current Charge


@<TRIPOS>ATOM
      1 C4         -43.5570    24.8390   -13.4350 ca         1 A1A      -0.140000
      2 C14        -50.9750    19.0150   -11.9520 c3         1 A1A      -0.114400
      3 C5         -43.2450    23.6800   -12.7080 ca         1 A1A      -0.079000
      4 C6         -44.2230    23.0380   -11.9220 ca         1 A1A      -0.119300
      5 C11        -48.6490    22.4290   -10.1050 c3         1 A1A       0.169300
      6 C7         -43.8420    21.7640   -11.1610 c3         1 A1A      -0.018100
      7 C8         -42.8640    22.0390    -9.9970 c3         1 A1A      -0.073400
      8 C9         -42.4200    20.7560    -9.2670 c3         1 A1A      -0.089100
      9 C10        -47.8390    23.4190   -10.9840 c3         1 A1A       0.170600
     10 C12        -48.7900    21.0160   -10.7500 c3         1 A1A       0.139800
     11 C13        -49.8390    19.7770   -12.6810 c3         1 A1A       0.170800
     12 N1         -49.5330    21.0650   -12.0310 n7         1 A1A      -0.870400
     13 N2         -52.7880    22.0630   -12.6850 nc         1 A1A      -0.369000
     14 C3         -44.8520    25.3740   -13.3810 ca         1 A1A      -0.077000
     15 N3         -53.1210    22.5610   -13.8480 nd         1 A1A      -0.199800
     16 C1         -45.5300    23.5800   -11.8630 ca         1 A1A       0.155100
     17 C15        -52.2500    19.8480   -11.6530 c3         1 A1A      -0.094700
     18 C16        -52.6990    20.7060   -12.8060 cc         1 A1A       0.202300
     19 C17        -53.0040    20.3190   -14.0720 cd         1 A1A      -0.212000
     20 C19        -52.5450    20.9920   -17.1020 c3         1 A1A      -0.096400
     21 C2         -45.8350    24.7500   -12.5970 ca         1 A1A      -0.197000
     22 C20        -51.0540    21.3330   -16.8590 c3         1 A1A      -0.080400
     23 C21        -50.1060    20.6480   -17.8680 c3         1 A1A      -0.020100
     24 C22        -48.6330    20.7640   -17.4840 ca         1 A1A      -0.123300
     25 C23        -47.8630    19.6000   -17.2910 ca         1 A1A      -0.068500
     26 C24        -46.5010    19.6980   -16.9580 ca         1 A1A      -0.168500
     27 C25        -45.8920    20.9540   -16.8130 ca         1 A1A       0.154100
     28 C26        -46.6600    22.1240   -16.9970 ca         1 A1A      -0.168500
     29 C27        -48.0220    22.0250   -17.3350 ca         1 A1A      -0.068500
     30 C28        -43.8200    22.2140   -16.3310 c3         1 A1A       0.156600
     31 C29        -42.3260    21.8650   -16.1090 c3         1 A1A       0.173300
     32 C30        -42.0690    20.9830   -14.8590 c3         1 A1A       0.118800
     33 C31        -40.3810    20.7450   -12.9930 c3         1 A1A       0.178500
     34 C32        -38.9890    21.2650   -12.5980 c3         1 A1A      -0.109100
     35 C33        -40.4790    19.2100   -12.8770 c3         1 A1A      -0.109100
     36 N4         -53.2470    21.5090   -14.7200 na         1 A1A       0.127800
     37 N5         -40.6680    21.1820   -14.3710 n7         1 A1A      -0.898400
     38 O1         -46.4810    22.9470   -11.0840 os         1 A1A      -0.352100
     39 O2         -49.9570    22.9790    -9.8320 oh         1 A1A      -0.658000
     40 O3         -44.5470    20.9820   -16.5100 os         1 A1A      -0.358100
     41 O4         -41.5390    23.0430   -15.9160 oh         1 A1A      -0.667000
     42 H3         -42.7940    25.3210   -14.0420 ha         1 A1A       0.118000
     43 H19        -51.2540    18.1560   -12.5740 hc         1 A1A       0.040200
     44 H20        -50.5930    18.5980   -11.0120 hc         1 A1A       0.040200
     45 H4         -42.2360    23.2780   -12.7610 ha         1 A1A       0.109000
     46 H12        -48.1040    22.3110    -9.1580 h1         1 A1A       0.039700
     47 H6         -44.7250    21.2490   -10.7650 hc         1 A1A       0.043200
     48 H5         -43.3800    21.0510   -11.8530 hc         1 A1A       0.043200
     49 H7         -41.9740    22.5550   -10.3770 hc         1 A1A       0.043200
     50 H50        -43.3430    22.7150    -9.2780 hc         1 A1A       0.043200
     51 H9         -41.7310    21.0010    -8.4500 hc         1 A1A       0.029033
     52 H8         -43.2840    20.2320    -8.8420 hc         1 A1A       0.029033
     53 H51        -41.9060    20.0760    -9.9570 hc         1 A1A       0.029033
     54 H11        -47.8630    24.4140   -10.5220 h1         1 A1A       0.054700
     55 H10        -48.3020    23.4870   -11.9770 h1         1 A1A       0.054700
     56 H14        -47.7890    20.5910   -10.9080 h1         1 A1A       0.030700
     57 H13        -49.3070    20.3640   -10.0330 h1         1 A1A       0.030700
     58 H17        -50.1600    19.9600   -13.7160 h1         1 A1A       0.052200
     59 H18        -48.9450    19.1410   -12.7350 h1         1 A1A       0.052200
     60 H16        -50.4210    21.5610   -11.8710 hn         1 A1A       0.442000
     61 H2         -45.0920    26.2730   -13.9450 ha         1 A1A       0.111000
     62 H21        -53.0610    19.1680   -11.3680 hc         1 A1A       0.052700
     63 H22        -52.0630    20.4780   -10.7750 hc         1 A1A       0.052700
     64 H23        -53.0230    19.3460   -14.5460 h4         1 A1A       0.165000
     65 H24        -54.5500    21.3790   -16.3530 h1         1 A1A       0.074200
     66 H25        -53.4910    22.7980   -16.3570 h1         1 A1A       0.074200
     67 H27        -52.6880    19.9090   -17.0020 hc         1 A1A       0.049700
     68 H26        -52.8100    21.2480   -18.1350 hc         1 A1A       0.049700
     69 H1         -46.8270    25.1910   -12.5720 ha         1 A1A       0.121000
     70 H28        -50.9160    22.4210   -16.9060 hc         1 A1A       0.054700
     71 H29        -50.7690    21.0210   -15.8470 hc         1 A1A       0.054700
     72 H31        -50.3890    19.5910   -17.9530 hc         1 A1A       0.042200
     73 H30        -50.2660    21.0860   -18.8610 hc         1 A1A       0.042200
     74 H32        -48.3150    18.6170   -17.4030 ha         1 A1A       0.109000
     75 H33        -45.9120    18.7960   -16.8180 ha         1 A1A       0.123000
     76 H34        -46.2190    23.1100   -16.8910 ha         1 A1A       0.123000
     77 H35        -48.6010    22.9340   -17.4870 ha         1 A1A       0.109000
     78 H36        -43.9070    22.8470   -17.2230 h1         1 A1A       0.054200
     79 H37        -44.2060    22.7690   -15.4660 h1         1 A1A       0.054200
     80 H38        -41.9580    21.3260   -16.9910 h1         1 A1A       0.037700
     81 H39        -42.7870    21.2770   -14.0820 h1         1 A1A       0.053700
     82 H40        -42.2680    19.9310   -15.1040 h1         1 A1A       0.053700
     83 H43        -41.1060    21.1880   -12.2980 h1         1 A1A       0.057700
     84 H44        -38.7550    20.9880   -11.5630 hc         1 A1A       0.038867
     85 H45        -38.2120    20.8480   -13.2500 hc         1 A1A       0.038867
     86 H46        -38.9510    22.3590   -12.6700 hc         1 A1A       0.038867
     87 H47        -40.2120    18.8870   -11.8640 hc         1 A1A       0.038867
     88 H49        -41.4990    18.8630   -13.0770 hc         1 A1A       0.038867
     89 H48        -39.7990    18.7170   -13.5830 hc         1 A1A       0.038867
     90 H53        -40.0240    20.6840   -15.0020 hn         1 A1A       0.413000
     91 H15        -50.3770    22.4020    -9.1580 ho         1 A1A       0.446000
     92 H41        -40.9280    22.7150   -15.2000 ho         1 A1A       0.476000
     93 C18        -53.5270    21.7210   -16.1500 c3         1 A1A       0.075600
@<TRIPOS>BOND
     1     1     3 ar  
     2     1    14 ar  
     3     1    42 1   
     4     2    11 1   
     5     2    17 1   
     6     2    43 1   
     7     2    44 1   
     8     3     4 ar  
     9     3    45 1   
    10     4     6 1   
    11     4    16 ar  
    12     5     9 1   
    13     5    10 1   
    14     5    39 1   
    15     5    46 1   
    16     6     7 1   
    17     6    47 1   
    18     6    48 1   
    19     7     8 1   
    20     7    49 1   
    21     7    50 1   
    22     8    51 1   
    23     8    52 1   
    24     8    53 1   
    25     9    38 1   
    26     9    54 1   
    27     9    55 1   
    28    10    12 1   
    29    10    56 1   
    30    10    57 1   
    31    11    12 1   
    32    11    58 1   
    33    11    59 1   
    34    12    60 1   
    35    13    15 2   
    36    13    18 1   
    37    14    21 ar  
    38    14    61 1   
    39    15    36 1   
    40    16    21 ar  
    41    16    38 1   
    42    17    18 1   
    43    17    62 1   
    44    17    63 1   
    45    18    19 2   
    46    19    36 1   
    47    19    64 1   
    48    20    22 1   
    49    20    67 1   
    50    20    68 1   
    51    20    93 1   
    52    21    69 1   
    53    22    23 1   
    54    22    70 1   
    55    22    71 1   
    56    23    24 1   
    57    23    72 1   
    58    23    73 1   
    59    24    25 ar  
    60    24    29 ar  
    61    25    26 ar  
    62    25    74 1   
    63    26    27 ar  
    64    26    75 1   
    65    27    28 ar  
    66    27    40 1   
    67    28    29 ar  
    68    28    76 1   
    69    29    77 1   
    70    30    31 1   
    71    30    40 1   
    72    30    78 1   
    73    30    79 1   
    74    31    32 1   
    75    31    41 1   
    76    31    80 1   
    77    32    37 1   
    78    32    81 1   
    79    32    82 1   
    80    33    34 1   
    81    33    35 1   
    82    33    37 1   
    83    33    83 1   
    84    34    84 1   
    85    34    85 1   
    86    34    86 1   
    87    35    87 1   
    88    35    88 1   
    89    35    89 1   
    90    36    93 1   
    91    37    90 1   
    92    39    91 1   
    93    41    92 1   
    94    65    93 1   
    95    66    93 1   
@<TRIPOS>SUBSTRUCTURE
     1 A1A         1 TEMP              0 ****  ****    0 ROOT
