@<TRIPOS>MOLECULE
A1A
   56    59     1     0     0
SMALL
abcg2


@<TRIPOS>ATOM
      1 C18        186.4180   206.8190   191.5370 c          1 A1A       0.620000
      2 C19        185.7870   205.5760   189.7120 c          1 A1A       0.568000
      3 C20        186.0680   204.6110   190.8540 c5         1 A1A       0.045400
      4 C16        184.8920   208.9530   189.8350 ca         1 A1A      -0.103500
      5 C15        184.6970   210.0960   189.0810 ca         1 A1A      -0.053000
      6 C14        185.4450   210.3060   187.9260 ca         1 A1A      -0.196300
      7 C13        186.4030   209.3790   187.5410 ca         1 A1A      -0.053000
      8 C12        186.6070   208.2390   188.3040 ca         1 A1A      -0.103500
      9 C11        185.8460   208.0230   189.4420 ca         1 A1A      -0.001000
     10 C10        185.6170   198.5300   188.0810 c6         1 A1A      -0.108900
     11 C02        186.7340   202.5500   189.5120 c6         1 A1A       0.162800
     12 C03        184.4600   202.7380   190.2380 c6         1 A1A       0.162800
     13 C04        184.8130   203.8210   191.2450 c6         1 A1A      -0.073400
     14 C06        186.1480   199.5940   189.0400 c6         1 A1A      -0.058700
     15 C07        186.4060   198.9520   190.4000 c6         1 A1A      -0.108900
     16 C08        187.2720   197.7120   190.2500 c6         1 A1A       0.154600
     17 C09        186.5340   197.3170   188.0640 c6         1 A1A       0.154600
     18 C21        187.1860   203.6270   190.4870 c6         1 A1A      -0.073400
     19 F01        185.8240   211.5340   185.9450 f          1 A1A      -0.113000
     20 F02        185.5980   212.6480   187.7730 f          1 A1A      -0.113000
     21 F03        183.8900   211.7120   186.8710 f          1 A1A      -0.113000
     22 N01        185.5730   201.8330   190.0110 n3         1 A1A      -0.715600
     23 N02        186.4790   205.5290   191.9070 n          1 A1A      -0.419800
     24 N03        186.0220   206.8390   190.1900 n          1 A1A      -0.226000
     25 O01        186.7170   196.7740   189.3520 os         1 A1A      -0.450000
     26 O02        186.6550   207.8080   192.1930 o          1 A1A      -0.532000
     27 O03        185.4230   205.3140   188.5930 o          1 A1A      -0.490000
     28 H1         184.2880   208.7800   190.7150 ha         1 A1A       0.132000
     29 H2         183.9470   210.8100   189.3950 ha         1 A1A       0.133500
     30 H3         187.0010   209.5250   186.6530 ha         1 A1A       0.133500
     31 H4         187.3620   207.5230   188.0090 ha         1 A1A       0.132000
     32 H6         184.6110   198.2240   188.3880 hc         1 A1A       0.052450
     33 H10        187.5640   201.8520   189.3920 h1         1 A1A       0.046700
     34 H11        186.5470   202.9810   188.5160 h1         1 A1A       0.046700
     35 H12        184.1050   203.1920   189.3010 h1         1 A1A       0.046700
     36 H13        183.6220   202.1630   190.6390 h1         1 A1A       0.046700
     37 H14        183.9640   204.4950   191.3850 hc         1 A1A       0.060450
     38 H15        185.0090   203.3460   192.2110 hc         1 A1A       0.060450
     39 H18        187.1080   199.9420   188.6380 hc         1 A1A       0.045700
     40 H19        186.9000   199.6550   191.0750 hc         1 A1A       0.052450
     41 H20        185.4510   198.6830   190.8640 hc         1 A1A       0.052450
     42 H21        187.3870   197.2010   191.2080 h1         1 A1A       0.042450
     43 H22        188.2780   198.0090   189.9140 h1         1 A1A       0.042450
     44 H23        186.1160   196.5240   187.4410 h1         1 A1A       0.042450
     45 H24        187.5040   197.6000   187.6260 h1         1 A1A       0.042450
     46 H25        187.5180   203.1370   191.4050 hc         1 A1A       0.060450
     47 H26        188.0450   204.1650   190.0810 hc         1 A1A       0.060450
     48 C01        186.7470   205.1240   193.2660 c3         1 A1A       0.106300
     49 C17        185.1950   211.5460   187.1230 c3         1 A1A       0.358300
     50 C05        185.1720   200.7610   189.1170 c3         1 A1A       0.168800
     51 H5         185.5340   198.9300   187.0660 hc         1 A1A       0.052450
     52 H7         187.3550   205.8790   193.7560 h1         1 A1A       0.049700
     53 H8         185.8300   204.9890   193.8410 h1         1 A1A       0.049700
     54 H9         187.3040   204.1890   193.2770 h1         1 A1A       0.049700
     55 H16        184.9870   201.1410   188.0960 h1         1 A1A       0.035700
     56 H17        184.2130   200.3700   189.4750 h1         1 A1A       0.035700
@<TRIPOS>BOND
     1     1    23 1   
     2     1    24 1   
     3     1    26 2   
     4     2     3 1   
     5     2    24 1   
     6     2    27 2   
     7     3    13 1   
     8     3    18 1   
     9     3    23 1   
    10     4     5 ar  
    11     4     9 ar  
    12     4    28 1   
    13     5     6 ar  
    14     5    29 1   
    15     6     7 ar  
    16     6    49 1   
    17     7     8 ar  
    18     7    30 1   
    19     8     9 ar  
    20     8    31 1   
    21     9    24 1   
    22    10    14 1   
    23    10    17 1   
    24    10    32 1   
    25    10    51 1   
    26    11    18 1   
    27    11    22 1   
    28    11    33 1   
    29    11    34 1   
    30    12    13 1   
    31    12    22 1   
    32    12    35 1   
    33    12    36 1   
    34    13    37 1   
    35    13    38 1   
    36    14    15 1   
    37    14    39 1   
    38    14    50 1   
    39    15    16 1   
    40    15    40 1   
    41    15    41 1   
    42    16    25 1   
    43    16    42 1   
    44    16    43 1   
    45    17    25 1   
    46    17    44 1   
    47    17    45 1   
    48    18    46 1   
    49    18    47 1   
    50    19    49 1   
    51    20    49 1   
    52    21    49 1   
    53    22    50 1   
    54    23    48 1   
    55    48    52 1   
    56    48    53 1   
    57    48    54 1   
    58    50    55 1   
    59    50    56 1   
@<TRIPOS>SUBSTRUCTURE
     1 A1A         1 TEMP              0 ****  ****    0 ROOT
