@<TRIPOS>MOLECULE
A1A
   52    55     1     0     0
SMALL
No Charge or Current Charge


@<TRIPOS>ATOM
      1 C01        129.0310   105.0970   105.4490 c3         1 A1A       0.217100
      2 C02        127.8240   104.2760   107.6520 c5         1 A1A       0.138200
      3 C03        128.2250   105.4730   108.5620 c6         1 A1A      -0.069900
      4 C04        127.2200   105.6990   109.7170 c6         1 A1A       0.167300
      5 C05        125.3900   104.7680   108.3640 c6         1 A1A       0.167300
      6 C06        126.3600   104.5200   107.1840 c6         1 A1A      -0.069900
      7 C08        123.4720   106.7260   109.8720 c6         1 A1A      -0.058700
      8 C09        123.5180   107.9380   108.8970 c6         1 A1A      -0.108400
      9 C10        122.0900   108.4300   108.5630 c6         1 A1A       0.154600
     10 C11        121.2110   107.6130   110.6640 c6         1 A1A       0.154600
     11 C12        122.5960   107.0810   111.1060 c6         1 A1A      -0.108400
     12 C14        129.4040   102.8450   106.5120 ca         1 A1A       0.391000
     13 C15        130.3330   102.3310   105.6040 ca         1 A1A      -0.201000
     14 C16        130.8390   101.0350   105.8190 ca         1 A1A       0.015000
     15 C17        130.4130   100.2740   106.9380 ca         1 A1A      -0.285300
     16 C18        129.4630   100.8210   107.8330 ca         1 A1A       0.069000
     17 C19        128.9810   102.1140   107.5890 ca         1 A1A      -0.299600
     18 C20        127.9910   102.8730   108.3960 c          1 A1A       0.597700
     19 F01        130.9750    98.5180   108.4700 f          1 A1A      -0.116667
     20 F02        132.2240    98.7210   106.7090 f          1 A1A      -0.116667
     21 F03        130.2030    97.9400   106.5210 f          1 A1A      -0.116667
     22 N01        125.8390   105.9130   109.2080 n3         1 A1A      -0.724600
     23 N02        128.7760   104.0840   106.4990 nh         1 A1A      -0.803400
     24 O01        127.4520   102.4440   109.4100 o          1 A1A      -0.510100
     25 O02        121.3780   108.7420   109.7800 os         1 A1A      -0.451000
     26 H1         128.4410   106.0050   105.6250 h1         1 A1A       0.046033
     27 H2         130.0920   105.3790   105.4390 h1         1 A1A       0.046033
     28 H3         128.7600   104.7010   104.4610 h1         1 A1A       0.046033
     29 H4         129.2280   105.3050   108.9750 hc         1 A1A       0.056700
     30 H5         128.2860   106.3920   107.9660 hc         1 A1A       0.056700
     31 H6         127.2490   104.8420   110.4060 h1         1 A1A       0.044950
     32 H7         127.5500   106.5770   110.2930 h1         1 A1A       0.044950
     33 H8         124.3970   104.9650   107.9390 h1         1 A1A       0.044950
     34 H9         125.3000   103.8550   108.9700 h1         1 A1A       0.044950
     35 H10        126.3230   105.3870   106.5120 hc         1 A1A       0.056700
     36 H11        126.0110   103.6610   106.5960 hc         1 A1A       0.056700
     37 H12        124.7770   105.3840   110.9710 h1         1 A1A       0.035200
     38 H13        125.3290   107.0580   110.9130 h1         1 A1A       0.035200
     39 H14        122.9910   105.8820   109.3600 hc         1 A1A       0.045700
     40 H15        124.0350   107.6620   107.9680 hc         1 A1A       0.052450
     41 H16        124.0940   108.7600   109.3440 hc         1 A1A       0.052450
     42 H17        122.1410   109.3320   107.9360 h1         1 A1A       0.042200
     43 H18        121.5390   107.6570   108.0070 h1         1 A1A       0.042200
     44 H19        120.6310   107.9280   111.5430 h1         1 A1A       0.042200
     45 H20        120.6460   106.8250   110.1440 h1         1 A1A       0.042200
     46 H21        122.4640   106.1970   111.7450 hc         1 A1A       0.052450
     47 H22        123.0970   107.8410   111.7210 hc         1 A1A       0.052450
     48 H23        130.6590   102.9160   104.7500 ha         1 A1A       0.127000
     49 H24        131.5580   100.6240   105.1130 ha         1 A1A       0.124000
     50 H25        129.1060   100.2570   108.6940 ha         1 A1A       0.144000
     51 C07        124.8950   106.2510   110.3060 c3         1 A1A       0.173800
     52 C13        130.9570    98.8610   107.1610 c3         1 A1A       0.366300
@<TRIPOS>BOND
     1     1    23 1   
     2     1    26 1   
     3     1    27 1   
     4     1    28 1   
     5     2     3 1   
     6     2     6 1   
     7     2    18 1   
     8     2    23 1   
     9     3     4 1   
    10     3    29 1   
    11     3    30 1   
    12     4    22 1   
    13     4    31 1   
    14     4    32 1   
    15     5     6 1   
    16     5    22 1   
    17     5    33 1   
    18     5    34 1   
    19     6    35 1   
    20     6    36 1   
    21     7     8 1   
    22     7    11 1   
    23     7    39 1   
    24     7    51 1   
    25     8     9 1   
    26     8    40 1   
    27     8    41 1   
    28     9    25 1   
    29     9    42 1   
    30     9    43 1   
    31    10    11 1   
    32    10    25 1   
    33    10    44 1   
    34    10    45 1   
    35    11    46 1   
    36    11    47 1   
    37    12    13 ar  
    38    12    17 ar  
    39    12    23 1   
    40    13    14 ar  
    41    13    48 1   
    42    14    15 ar  
    43    14    49 1   
    44    15    16 ar  
    45    15    52 1   
    46    16    17 ar  
    47    16    50 1   
    48    17    18 1   
    49    18    24 2   
    50    19    52 1   
    51    20    52 1   
    52    21    52 1   
    53    22    51 1   
    54    37    51 1   
    55    38    51 1   
@<TRIPOS>SUBSTRUCTURE
     1 A1A         1 TEMP              0 ****  ****    0 ROOT
