@<TRIPOS>MOLECULE
A1A
   33    35     1     0     0
SMALL
abcg2


@<TRIPOS>ATOM
      1 C10        137.3750   139.3320   148.0140 ca         1 A1A       0.372900
      2 C13        138.7200   136.0470   147.7720 ca         1 A1A      -0.133500
      3 C20        141.0930   135.9110   147.3290 ca         1 A1A      -0.112000
      4 C21        141.2320   137.2550   147.6500 ca         1 A1A      -0.078000
      5 C22        140.1260   137.9870   148.0450 ca         1 A1A      -0.112000
      6 C01        135.2410   142.0770   149.0850 c3         1 A1A      -0.158400
      7 C02        136.1380   141.2210   148.2540 ca         1 A1A       0.175300
      8 C03        136.5290   141.6330   146.9720 ca         1 A1A      -0.222000
      9 C04        137.3640   140.7760   146.2990 ca         1 A1A       0.051300
     10 C05        137.8630   141.0650   144.9050 c3         1 A1A       0.267700
     11 C12        138.8690   137.3950   148.1100 ca         1 A1A       0.295000
     12 C14        137.4370   135.3490   147.7840 cc         1 A1A       0.455000
     13 C19        139.8490   135.3130   147.3940 ca         1 A1A      -0.055000
     14 F06        137.4790   142.2620   144.4660 f          1 A1A      -0.101000
     15 F07        139.1970   141.0260   144.8620 f          1 A1A      -0.101000
     16 F08        137.4080   140.1550   144.0390 f          1 A1A      -0.101000
     17 N09        137.7950   139.6260   146.7940 nb         1 A1A      -0.189000
     18 N11        137.7580   138.1430   148.5640 nu         1 A1A      -0.962900
     19 N15        136.2080   135.8610   147.9130 na         1 A1A      -0.198700
     20 N16        135.3200   134.8880   147.8380 nc         1 A1A      -0.205800
     21 N17        135.9800   133.8100   147.6690 nd         1 A1A      -0.043000
     22 N18        137.2860   134.0490   147.6310 nd         1 A1A      -0.394000
     23 N23        136.5620   140.0810   148.7640 nb         1 A1A      -0.232000
     24 H2         142.2020   137.7310   147.6070 ha         1 A1A       0.124000
     25 H3         140.2350   139.0280   148.3190 ha         1 A1A       0.125000
     26 H4         134.9420   141.5610   149.9940 hc         1 A1A       0.064367
     27 H5         135.7540   143.0000   149.3610 hc         1 A1A       0.064367
     28 H6         134.3510   142.3620   148.5240 hc         1 A1A       0.064367
     29 H7         136.1830   142.5690   146.5590 ha         1 A1A       0.156000
     30 H8         139.7410   134.2680   147.1380 ha         1 A1A       0.148000
     31 H9         137.4780   138.0100   149.5270 hn         1 A1A       0.514000
     32 H10        135.9190   136.8190   148.0480 hn         1 A1A       0.396000
     33 H1         141.9530   135.3290   147.0280 ha         1 A1A       0.126000
@<TRIPOS>BOND
     1     1    17 ar  
     2     1    18 1   
     3     1    23 ar  
     4     2    11 ar  
     5     2    12 1   
     6     2    13 ar  
     7     3     4 ar  
     8     3    13 ar  
     9     3    33 1   
    10     4     5 ar  
    11     4    24 1   
    12     5    11 ar  
    13     5    25 1   
    14     6     7 1   
    15     6    26 1   
    16     6    27 1   
    17     6    28 1   
    18     7     8 ar  
    19     7    23 ar  
    20     8     9 ar  
    21     8    29 1   
    22     9    10 1   
    23     9    17 ar  
    24    10    14 1   
    25    10    15 1   
    26    10    16 1   
    27    11    18 1   
    28    12    19 1   
    29    12    22 2   
    30    13    30 1   
    31    18    31 1   
    32    19    20 1   
    33    19    32 1   
    34    20    21 2   
    35    21    22 1   
@<TRIPOS>SUBSTRUCTURE
     1 A1A         1 TEMP              0 ****  ****    0 ROOT
