@<TRIPOS>MOLECULE
A1A
  127   126     1     0     0
SMALL
No Charge or Current Charge


@<TRIPOS>ATOM
      1 CAD        204.7160   232.1030   180.7870 c3         1 A1A       0.172600
      2 OAE        205.5340   232.3980   179.6460 oh         1 A1A      -0.620000
      3 OAF        204.0250   230.3880   182.3740 oh         1 A1A      -0.688000
      4 P          204.8950   227.3980   181.3240 p5         1 A1A       1.381800
      5 C01        207.5770   225.7590   183.5900 c3         1 A1A       0.163600
      6 O01        207.0020   227.4040   185.3370 os         1 A1A      -0.462100
      7 C02        206.6560   226.9490   184.0050 c3         1 A1A       0.102300
      8 C2         207.0770   227.3140   187.7280 c3         1 A1A      -0.143400
      9 O02        205.8230   225.7230   186.3630 o          1 A1A      -0.479000
     10 C03        206.7780   228.1740   183.0530 c3         1 A1A       0.228600
     11 C3         206.4710   226.7400   189.0320 c3         1 A1A      -0.066400
     12 C04        204.1970   229.6860   180.0050 c3         1 A1A       0.210600
     13 C4         207.1500   227.2540   190.3220 c3         1 A1A      -0.077400
     14 O04        210.6010   227.1260   184.7870 o          1 A1A      -0.465000
     15 C05        204.7690   230.5910   181.1500 c3         1 A1A       0.137300
     16 C5         206.9840   228.7680   190.5840 c3         1 A1A      -0.077400
     17 C06        210.1730   229.7980   195.5000 c3         1 A1A      -0.042200
     18 C6         207.6820   229.2280   191.8820 c3         1 A1A      -0.078400
     19 C07        210.8580   229.4600   196.8440 c3         1 A1A      -0.071400
     20 C7         207.4960   230.7340   192.1730 c3         1 A1A      -0.068400
     21 C08        210.5840   228.0290   197.3640 c3         1 A1A      -0.077400
     22 C8         208.2870   231.2320   193.4030 c3         1 A1A      -0.044200
     23 C09        211.3600   227.7070   198.6600 c3         1 A1A      -0.074400
     24 C9         207.8640   230.5600   194.6990 c2         1 A1A      -0.216200
     25 C10        208.6610   229.9420   195.5890 c2         1 A1A      -0.221200
     26 C11        211.0790   226.2900   199.2040 c3         1 A1A      -0.076400
     27 O11        206.4000   227.8240   181.7070 os         1 A1A      -0.601400
     28 C12        211.9020   225.9570   200.4690 c3         1 A1A      -0.075400
     29 O12        204.7010   228.3280   180.0210 os         1 A1A      -0.563400
     30 C13        211.6190   224.5450   201.0260 c3         1 A1A      -0.076400
     31 O13        203.9210   227.7810   182.3840 o          1 A1A      -0.817000
     32 C14        212.4580   224.2090   202.2740 c3         1 A1A      -0.088100
     33 O14        204.8270   225.9480   180.9880 o          1 A1A      -0.817000
     34 C15        209.1420   226.2930   193.9930 c3         1 A1A      -0.076400
     35 C16        207.8380   226.2720   194.8290 c3         1 A1A      -0.070400
     36 C17        207.5480   224.9570   195.5940 c3         1 A1A      -0.072400
     37 C18        208.5710   224.6280   196.7050 c3         1 A1A      -0.076400
     38 C19        209.7600   226.2510   184.6420 c          1 A1A       0.615100
     39 C20        209.6020   225.0720   185.6290 c3         1 A1A      -0.191400
     40 C21        210.6920   224.9730   186.7240 c3         1 A1A      -0.064400
     41 C22        210.5660   223.6900   187.5770 c3         1 A1A      -0.078400
     42 C23        211.6660   223.5340   188.6580 c3         1 A1A      -0.069400
     43 C24        211.6240   224.5610   189.8180 c3         1 A1A      -0.073400
     44 C25        210.3820   224.4340   190.7320 c3         1 A1A      -0.076400
     45 C26        210.4000   225.4200   191.9200 c3         1 A1A      -0.076400
     46 C27        209.1880   225.2430   192.8600 c3         1 A1A      -0.077400
     47 C28        208.2420   223.3190   197.4540 c3         1 A1A      -0.076400
     48 C29        208.9310   221.6970   199.3320 c3         1 A1A      -0.088100
     49 C30        209.2270   223.0210   198.6040 c3         1 A1A      -0.076400
     50 H1         205.0620   232.6900   181.6490 h1         1 A1A       0.008700
     51 H2         203.6750   232.3900   180.5850 h1         1 A1A       0.008700
     52 H3         205.4750   233.3660   179.4950 ho         1 A1A       0.422000
     53 H4         203.9050   229.3980   182.4680 ho         1 A1A       0.446000
     54 H5         207.2600   225.4300   182.5920 h1         1 A1A       0.079700
     55 H6         207.4280   224.8990   184.2520 h1         1 A1A       0.079700
     56 H7         205.6130   226.6060   183.9860 h1         1 A1A       0.105700
     57 H8         208.1680   227.2100   187.7080 hc         1 A1A       0.069700
     58 H9         206.9670   228.4020   187.6540 hc         1 A1A       0.069700
     59 H10        207.8120   228.5420   183.0670 h1         1 A1A       0.042700
     60 H11        206.1420   228.9840   183.4340 h1         1 A1A       0.042700
     61 H12        205.3980   226.9660   189.0680 hc         1 A1A       0.053200
     62 H13        206.5620   225.6470   189.0130 hc         1 A1A       0.053200
     63 H14        203.1000   229.6810   180.0650 h1         1 A1A       0.024200
     64 H15        204.4530   230.1340   179.0370 h1         1 A1A       0.024200
     65 H16        206.7270   226.7070   191.1730 hc         1 A1A       0.036700
     66 H17        208.2180   227.0070   190.2860 hc         1 A1A       0.036700
     67 H18        205.8270   230.3360   181.2990 h1         1 A1A       0.066700
     68 H19        207.3980   229.3380   189.7440 hc         1 A1A       0.041200
     69 H20        205.9150   229.0090   190.6410 hc         1 A1A       0.041200
     70 H21        210.4340   229.0270   194.7650 hc         1 A1A       0.047700
     71 H22        210.6100   230.7320   195.1270 hc         1 A1A       0.047700
     72 H23        207.2890   228.6470   192.7260 hc         1 A1A       0.037200
     73 H24        208.7540   229.0050   191.8090 hc         1 A1A       0.037200
     74 H25        211.9410   229.5820   196.7150 hc         1 A1A       0.037200
     75 H26        210.5500   230.1930   197.6010 hc         1 A1A       0.037200
     76 H27        207.8190   231.3100   191.2960 hc         1 A1A       0.039200
     77 H28        206.4300   230.9490   192.3160 hc         1 A1A       0.039200
     78 H29        209.5110   227.9000   197.5480 hc         1 A1A       0.039700
     79 H30        210.8660   227.3040   196.5910 hc         1 A1A       0.039700
     80 H31        209.3560   231.0890   193.2080 hc         1 A1A       0.042700
     81 H32        208.1380   232.3150   193.4940 hc         1 A1A       0.042700
     82 H33        212.4350   227.8120   198.4680 hc         1 A1A       0.035700
     83 H34        211.0990   228.4450   199.4290 hc         1 A1A       0.035700
     84 H35        206.7890   230.6040   194.8850 ha         1 A1A       0.165000
     85 H36        208.2140   229.5010   196.4810 ha         1 A1A       0.165000
     86 H37        210.0110   226.2010   199.4360 hc         1 A1A       0.038200
     87 H38        211.3030   225.5520   198.4240 hc         1 A1A       0.038200
     88 H39        212.9700   226.0430   200.2340 hc         1 A1A       0.035700
     89 H40        211.6840   226.7000   201.2460 hc         1 A1A       0.035700
     90 H41        210.5560   224.4610   201.2820 hc         1 A1A       0.037700
     91 H42        211.8240   223.7990   200.2490 hc         1 A1A       0.037700
     92 H44        212.2220   223.2000   202.6320 hc         1 A1A       0.030033
     93 H45        213.5300   224.2490   202.0430 hc         1 A1A       0.030033
     94 H46        212.2510   224.9180   203.0840 hc         1 A1A       0.030033
     95 H47        210.0110   226.1610   194.6470 hc         1 A1A       0.037200
     96 H48        209.2430   227.2900   193.5500 hc         1 A1A       0.037200
     97 H49        207.8690   227.0980   195.5490 hc         1 A1A       0.038700
     98 H50        206.9930   226.4810   194.1620 hc         1 A1A       0.038700
     99 H51        206.5540   225.0400   196.0490 hc         1 A1A       0.037200
    100 H52        207.4910   224.1220   194.8860 hc         1 A1A       0.037200
    101 H53        209.5750   224.5440   196.2730 hc         1 A1A       0.037200
    102 H54        208.5970   225.4580   197.4220 hc         1 A1A       0.037200
    103 H55        208.6080   225.1040   186.0810 hc         1 A1A       0.064200
    104 H56        209.5400   224.1520   185.0350 hc         1 A1A       0.064200
    105 H57        211.6820   224.9900   186.2510 hc         1 A1A       0.050700
    106 H58        210.6260   225.8580   187.3680 hc         1 A1A       0.050700
    107 H59        209.5740   223.6530   188.0430 hc         1 A1A       0.037700
    108 H60        210.6220   222.8220   186.9080 hc         1 A1A       0.037700
    109 H61        211.5980   222.5250   189.0830 hc         1 A1A       0.034700
    110 H62        212.6470   223.5940   188.1720 hc         1 A1A       0.034700
    111 H63        212.5220   224.4180   190.4320 hc         1 A1A       0.036700
    112 H64        211.6850   225.5800   189.4190 hc         1 A1A       0.036700
    113 H65        209.4730   224.6100   190.1440 hc         1 A1A       0.039200
    114 H66        210.3230   223.4080   191.1160 hc         1 A1A       0.039200
    115 H67        211.3240   225.2820   192.4960 hc         1 A1A       0.034700
    116 H68        210.4130   226.4460   191.5320 hc         1 A1A       0.034700
    117 H69        208.2650   225.3020   192.2740 hc         1 A1A       0.040200
    118 H70        209.2240   224.2370   193.2960 hc         1 A1A       0.040200
    119 H71        207.2250   223.3790   197.8610 hc         1 A1A       0.036200
    120 H72        208.2550   222.4840   196.7420 hc         1 A1A       0.036200
    121 H73        209.6530   221.5380   200.1420 hc         1 A1A       0.030033
    122 H74        207.9250   221.7090   199.7670 hc         1 A1A       0.030033
    123 H75        209.0000   220.8490   198.6400 hc         1 A1A       0.030033
    124 H76        210.2510   222.9920   198.2110 hc         1 A1A       0.036200
    125 H77        209.1840   223.8400   199.3310 hc         1 A1A       0.036200
    126 C1         206.5450   226.7080   186.4260 c          1 A1A       0.589100
    127 O03        208.9560   226.2090   183.5250 os         1 A1A      -0.438100
@<TRIPOS>BOND
     1     1     2 1   
     2     1    15 1   
     3     1    50 1   
     4     1    51 1   
     5     2    52 1   
     6     3    15 1   
     7     3    53 1   
     8     4    27 1   
     9     4    29 1   
    10     4    31 1   
    11     4    33 1   
    12     5     7 1   
    13     5    54 1   
    14     5    55 1   
    15     5   127 1   
    16     6     7 1   
    17     6   126 1   
    18     7    10 1   
    19     7    56 1   
    20     8    11 1   
    21     8    57 1   
    22     8    58 1   
    23     8   126 1   
    24     9   126 2   
    25    10    27 1   
    26    10    59 1   
    27    10    60 1   
    28    11    13 1   
    29    11    61 1   
    30    11    62 1   
    31    12    15 1   
    32    12    29 1   
    33    12    63 1   
    34    12    64 1   
    35    13    16 1   
    36    13    65 1   
    37    13    66 1   
    38    14    38 2   
    39    15    67 1   
    40    16    18 1   
    41    16    68 1   
    42    16    69 1   
    43    17    19 1   
    44    17    25 1   
    45    17    70 1   
    46    17    71 1   
    47    18    20 1   
    48    18    72 1   
    49    18    73 1   
    50    19    21 1   
    51    19    74 1   
    52    19    75 1   
    53    20    22 1   
    54    20    76 1   
    55    20    77 1   
    56    21    23 1   
    57    21    78 1   
    58    21    79 1   
    59    22    24 1   
    60    22    80 1   
    61    22    81 1   
    62    23    26 1   
    63    23    82 1   
    64    23    83 1   
    65    24    25 2   
    66    24    84 1   
    67    25    85 1   
    68    26    28 1   
    69    26    86 1   
    70    26    87 1   
    71    28    30 1   
    72    28    88 1   
    73    28    89 1   
    74    30    32 1   
    75    30    90 1   
    76    30    91 1   
    77    32    92 1   
    78    32    93 1   
    79    32    94 1   
    80    34    35 1   
    81    34    46 1   
    82    34    95 1   
    83    34    96 1   
    84    35    36 1   
    85    35    97 1   
    86    35    98 1   
    87    36    37 1   
    88    36    99 1   
    89    36   100 1   
    90    37    47 1   
    91    37   101 1   
    92    37   102 1   
    93    38    39 1   
    94    38   127 1   
    95    39    40 1   
    96    39   103 1   
    97    39   104 1   
    98    40    41 1   
    99    40   105 1   
   100    40   106 1   
   101    41    42 1   
   102    41   107 1   
   103    41   108 1   
   104    42    43 1   
   105    42   109 1   
   106    42   110 1   
   107    43    44 1   
   108    43   111 1   
   109    43   112 1   
   110    44    45 1   
   111    44   113 1   
   112    44   114 1   
   113    45    46 1   
   114    45   115 1   
   115    45   116 1   
   116    46   117 1   
   117    46   118 1   
   118    47    49 1   
   119    47   119 1   
   120    47   120 1   
   121    48    49 1   
   122    48   121 1   
   123    48   122 1   
   124    48   123 1   
   125    49   124 1   
   126    49   125 1   
@<TRIPOS>SUBSTRUCTURE
     1 A1A         1 TEMP              0 ****  ****    0 ROOT
