@<TRIPOS>MOLECULE
A1A
   19    18     1     0     0
SMALL
No Charge or Current Charge


@<TRIPOS>ATOM
      1 C02         84.2140   124.6690   107.8610 c3         1 A1A       0.220000
      2 C03         83.2570   124.3760   106.6750 c3         1 A1A      -0.108100
      3 C04         84.7830   123.3690   108.4850 c3         1 A1A      -0.241400
      4 C05         85.6210   122.5810   107.4750 c          1 A1A       0.718000
      5 C08         83.5220   125.5200   108.9570 c3         1 A1A      -0.197400
      6 C09         82.9710   126.8490   108.4340 c          1 A1A       0.604900
      7 O01         85.3260   125.4010   107.3630 oh         1 A1A      -0.737000
      8 O06         85.1160   121.6250   106.9090 o          1 A1A      -0.724000
      9 O07         86.7200   123.0400   107.2020 o          1 A1A      -0.724000
     10 O10         83.5900   127.9090   108.4670 o          1 A1A      -0.561100
     11 H1          82.3920   123.7910   107.0110 hc         1 A1A       0.028367
     12 H2          82.8830   125.3020   106.2220 hc         1 A1A       0.028367
     13 H3          83.7600   123.8110   105.8820 hc         1 A1A       0.028367
     14 H4          83.9440   122.7650   108.8490 hc         1 A1A       0.032700
     15 H5          85.4420   123.7070   109.2950 hc         1 A1A       0.032700
     16 H6          82.6720   124.9280   109.3150 hc         1 A1A       0.055200
     17 H7          84.2250   125.7180   109.7750 hc         1 A1A       0.055200
     18 H8          81.9410   126.8040   108.0150 h4         1 A1A      -0.028800
     19 H9          86.0340   124.7150   107.2290 ho         1 A1A       0.519000
@<TRIPOS>BOND
     1     1     2 1   
     2     1     3 1   
     3     1     5 1   
     4     1     7 1   
     5     2    11 1   
     6     2    12 1   
     7     2    13 1   
     8     3     4 1   
     9     3    14 1   
    10     3    15 1   
    11     4     8 1   
    12     4     9 1   
    13     5     6 1   
    14     5    16 1   
    15     5    17 1   
    16     6    10 2   
    17     6    18 1   
    18     7    19 1   
@<TRIPOS>SUBSTRUCTURE
     1 A1A         1 TEMP              0 ****  ****    0 ROOT
