@<TRIPOS>MOLECULE
A1A
   40    42     1     0     0
SMALL
abcg2


@<TRIPOS>ATOM
      1 C4          31.2120     8.9550    -8.6100 ca         1 A1A      -0.176000
      2 C7          29.3290     8.3290    -5.4640 ca         1 A1A      -0.161000
      3 C6          30.0430     8.0770    -6.6630 ca         1 A1A      -0.036000
      4 C13         30.9690    13.7600    -8.2520 c5         1 A1A       0.105700
      5 C20         30.3300     6.7820    -7.1290 ca         1 A1A      -0.027000
      6 C21         31.0380     6.5520    -8.2840 ca         1 A1A      -0.150600
      7 C8          29.1040     9.6200    -5.1010 ca         1 A1A       0.354900
      8 C16         31.3160    12.7640   -10.4450 c5         1 A1A      -0.167400
      9 C1          32.6160     8.5130   -10.9670 c3         1 A1A       0.148900
     10 C3          31.4940     7.6780    -9.0360 ca         1 A1A       0.159100
     11 C5          30.4870     9.1690    -7.4280 ca         1 A1A      -0.048000
     12 N9          29.5180    10.6860    -5.8310 nb         1 A1A      -0.764000
     13 C10         30.1680    10.4740    -6.9310 ca         1 A1A       0.597300
     14 O11         30.5830    11.4920    -7.6810 os         1 A1A      -0.467300
     15 C12         30.3920    12.8180    -7.2110 c3         1 A1A       0.148600
     16 C15         30.3380    13.6250    -9.6500 c5         1 A1A      -0.078400
     17 C17         32.6170    12.8470    -9.6720 c          1 A1A       0.567000
     18 O18         33.7000    12.4120   -10.0260 o          1 A1A      -0.560000
     19 N19         32.3660    13.4930    -8.5170 ns         1 A1A      -0.504900
     20 C22         31.2430     5.0980    -8.6420 c          1 A1A       0.621700
     21 O23         30.6480     4.2320    -8.0140 o          1 A1A      -0.622100
     22 N24         32.0930     4.8000    -9.6290 nt         1 A1A      -0.593000
     23 H28         31.5540     9.8070    -9.1780 ha         1 A1A       0.136000
     24 H29         28.9760     7.5090    -4.8520 ha         1 A1A       0.131000
     25 H14         30.8410    14.7720    -7.8610 h1         1 A1A       0.069700
     26 H38         29.9790     5.9360    -6.5530 ha         1 A1A       0.150000
     27 H30         28.5680     9.8570    -4.1910 h4         1 A1A       0.021100
     28 H36         31.4620    13.1070   -11.4690 hc         1 A1A       0.074700
     29 H35         31.0090    11.7170   -10.5030 hc         1 A1A       0.074700
     30 H27         33.1410     8.0720   -11.8100 h1         1 A1A       0.050700
     31 H26         31.7670     9.0910   -11.3380 h1         1 A1A       0.050700
     32 H25         33.2960     9.1790   -10.4320 h1         1 A1A       0.050700
     33 H32         30.8930    12.9540    -6.2480 h1         1 A1A       0.058200
     34 H31         29.3300    13.0340    -7.0680 h1         1 A1A       0.058200
     35 H34         30.2560    14.6140   -10.1020 hc         1 A1A       0.059200
     36 H33         29.3340    13.2060    -9.6050 hc         1 A1A       0.059200
     37 H37         33.0700    13.5800    -7.8000 hn         1 A1A       0.326500
     38 H39         32.2320     3.8330    -9.8750 hn         1 A1A       0.325500
     39 H40         32.5640     5.5050   -10.1700 hn         1 A1A       0.325500
     40 O2          32.1900     7.4300   -10.1580 os         1 A1A      -0.367100
@<TRIPOS>BOND
     1     1    10 ar  
     2     1    11 ar  
     3     1    23 1   
     4     2     3 ar  
     5     2     7 ar  
     6     2    24 1   
     7     3     5 ar  
     8     3    11 ar  
     9     4    15 1   
    10     4    16 1   
    11     4    19 1   
    12     4    25 1   
    13     5     6 ar  
    14     5    26 1   
    15     6    10 ar  
    16     6    20 1   
    17     7    12 ar  
    18     7    27 1   
    19     8    16 1   
    20     8    17 1   
    21     8    28 1   
    22     8    29 1   
    23     9    30 1   
    24     9    31 1   
    25     9    32 1   
    26     9    40 1   
    27    10    40 1   
    28    11    13 ar  
    29    12    13 ar  
    30    13    14 1   
    31    14    15 1   
    32    15    33 1   
    33    15    34 1   
    34    16    35 1   
    35    16    36 1   
    36    17    18 2   
    37    17    19 1   
    38    19    37 1   
    39    20    21 2   
    40    20    22 1   
    41    22    38 1   
    42    22    39 1   
@<TRIPOS>SUBSTRUCTURE
     1 A1A         1 TEMP              0 ****  ****    0 ROOT
