@<TRIPOS>MOLECULE
A1A
  127   126     1     0     0
SMALL
abcg2


@<TRIPOS>ATOM
      1 CAD        205.7460   229.6720   178.0110 c3         1 A1A       0.172600
      2 OAE        205.7720   228.2680   177.9380 oh         1 A1A      -0.620000
      3 OAF        205.5620   231.5260   179.4040 oh         1 A1A      -0.688000
      4 P          204.3860   227.8230   182.0780 p5         1 A1A       1.381800
      5 C01        207.3880   226.5020   184.0370 c3         1 A1A       0.163600
      6 O01        206.7660   227.8330   185.9380 os         1 A1A      -0.462100
      7 C02        206.3450   227.4300   184.6310 c3         1 A1A       0.102300
      8 C2         206.8380   227.8080   188.2790 c3         1 A1A      -0.143400
      9 O02        205.3710   226.4160   186.9690 o          1 A1A      -0.479000
     10 C03        206.1480   228.7270   183.8440 c3         1 A1A       0.228600
     11 C3         206.2780   227.1780   189.5440 c3         1 A1A      -0.066400
     12 C04        204.2990   229.6050   180.1200 c3         1 A1A       0.210600
     13 C4         206.9700   227.6650   190.8120 c3         1 A1A      -0.077400
     14 O04        210.4650   227.8220   184.9900 o          1 A1A      -0.465000
     15 C05        205.5830   230.1140   179.4580 c3         1 A1A       0.137300
     16 C5         206.7200   229.1250   191.1690 c3         1 A1A      -0.077400
     17 C06        209.9670   229.5300   195.6970 c3         1 A1A      -0.042200
     18 C6         207.3990   229.5070   192.4790 c3         1 A1A      -0.078400
     19 C07        210.8020   229.1830   196.9300 c3         1 A1A      -0.071400
     20 C7         207.0880   230.9220   192.9450 c3         1 A1A      -0.068400
     21 C08        210.6190   227.7480   197.4120 c3         1 A1A      -0.077400
     22 C8         207.8800   231.3310   194.1930 c3         1 A1A      -0.044200
     23 C09        211.4460   227.4290   198.6510 c3         1 A1A      -0.074400
     24 C9         207.6190   230.4310   195.3610 c2         1 A1A      -0.216200
     25 C10        208.4980   229.6530   195.9900 c2         1 A1A      -0.221200
     26 C11        211.2950   225.9890   199.1230 c3         1 A1A      -0.076400
     27 O11        205.8550   228.4780   182.4920 os         1 A1A      -0.601400
     28 C12        212.1100   225.6780   200.3710 c3         1 A1A      -0.075400
     29 O12        204.4020   228.2480   180.5040 os         1 A1A      -0.563400
     30 C13        211.9690   224.2370   200.8460 c3         1 A1A      -0.076400
     31 O13        203.3120   228.5460   182.8310 o          1 A1A      -0.817000
     32 C14        212.7840   223.9450   202.0990 c3         1 A1A      -0.088100
     33 O14        204.4840   226.3310   182.1010 o          1 A1A      -0.817000
     34 C15        208.8750   226.2160   194.0230 c3         1 A1A      -0.076400
     35 C16        207.6180   225.9630   194.8480 c3         1 A1A      -0.070400
     36 C17        207.5110   224.5730   195.4710 c3         1 A1A      -0.072400
     37 C18        208.6460   224.2290   196.4280 c3         1 A1A      -0.076400
     38 C19        209.5880   226.9990   184.9420 c          1 A1A       0.615100
     39 C20        209.5520   225.7680   185.8140 c3         1 A1A      -0.191400
     40 C21        210.6620   225.7250   186.8540 c3         1 A1A      -0.064400
     41 C22        210.6840   224.3830   187.5770 c3         1 A1A      -0.078400
     42 C23        211.7750   224.2810   188.6420 c3         1 A1A      -0.069400
     43 C24        211.5850   225.1850   189.8580 c3         1 A1A      -0.073400
     44 C25        210.3450   224.8560   190.6800 c3         1 A1A      -0.076400
     45 C26        210.2200   225.6980   191.9420 c3         1 A1A      -0.076400
     46 C27        209.0340   225.3060   192.8120 c3         1 A1A      -0.077400
     47 C28        208.4410   222.8940   197.1330 c3         1 A1A      -0.076400
     48 C29        209.3450   221.2120   198.8100 c3         1 A1A      -0.088100
     49 C30        209.5610   222.5420   198.1030 c3         1 A1A      -0.076400
     50 H1         206.6710   230.1140   177.6170 h1         1 A1A       0.008700
     51 H2         204.9150   230.0950   177.4280 h1         1 A1A       0.008700
     52 H3         205.8700   228.0240   177.0130 ho         1 A1A       0.422000
     53 H4         205.6160   231.8660   180.3020 ho         1 A1A       0.446000
     54 H5         207.1150   226.2670   183.0100 h1         1 A1A       0.079700
     55 H6         207.4200   225.5600   184.5860 h1         1 A1A       0.079700
     56 H7         205.4030   226.8800   184.6840 h1         1 A1A       0.105700
     57 H8         207.9210   227.6480   188.2220 hc         1 A1A       0.069700
     58 H9         206.7030   228.8930   188.2780 hc         1 A1A       0.069700
     59 H10        207.0630   229.3220   183.8750 h1         1 A1A       0.042700
     60 H11        205.3590   229.3130   184.3260 h1         1 A1A       0.042700
     61 H12        205.2050   227.3760   189.6160 hc         1 A1A       0.053200
     62 H13        206.3870   226.0930   189.4810 hc         1 A1A       0.053200
     63 H14        204.0730   230.2450   180.9810 h1         1 A1A       0.024200
     64 H15        203.4580   229.7090   179.4260 h1         1 A1A       0.024200
     65 H16        206.6290   227.0450   191.6470 hc         1 A1A       0.036700
     66 H17        208.0480   227.4880   190.7310 hc         1 A1A       0.036700
     67 H18        206.4410   229.7530   180.0420 h1         1 A1A       0.066700
     68 H19        207.0760   229.7870   190.3730 hc         1 A1A       0.041200
     69 H20        205.6410   229.2970   191.2500 hc         1 A1A       0.041200
     70 H21        210.1300   228.7560   194.9390 hc         1 A1A       0.047700
     71 H22        210.3390   230.4570   195.2540 hc         1 A1A       0.047700
     72 H23        207.0990   228.7960   193.2550 hc         1 A1A       0.037200
     73 H24        208.4830   229.3880   192.3700 hc         1 A1A       0.037200
     74 H25        211.8590   229.3420   196.6960 hc         1 A1A       0.037200
     75 H26        210.5630   229.8790   197.7410 hc         1 A1A       0.037200
     76 H27        207.3110   231.6330   192.1440 hc         1 A1A       0.039200
     77 H28        206.0150   231.0120   193.1440 hc         1 A1A       0.039200
     78 H29        209.5640   227.5490   197.6250 hc         1 A1A       0.039700
     79 H30        210.8940   227.0600   196.6050 hc         1 A1A       0.039700
     80 H31        208.9440   231.3510   193.9470 hc         1 A1A       0.042700
     81 H32        207.6030   232.3570   194.4580 hc         1 A1A       0.042700
     82 H33        212.5020   227.6340   198.4450 hc         1 A1A       0.035700
     83 H34        211.1590   228.1090   199.4610 hc         1 A1A       0.035700
     84 H35        206.5860   230.4030   195.7010 ha         1 A1A       0.165000
     85 H36        208.1220   229.0380   196.8040 ha         1 A1A       0.165000
     86 H37        210.2370   225.7800   199.3190 hc         1 A1A       0.038200
     87 H38        211.5900   225.3090   198.3170 hc         1 A1A       0.038200
     88 H39        213.1670   225.8910   200.1770 hc         1 A1A       0.035700
     89 H40        211.8100   226.3550   201.1780 hc         1 A1A       0.035700
     90 H41        210.9130   224.0200   201.0360 hc         1 A1A       0.037700
     91 H42        212.2750   223.5590   200.0430 hc         1 A1A       0.037700
     92 H44        212.6700   222.9090   202.4200 hc         1 A1A       0.030033
     93 H45        213.8470   224.1230   201.9270 hc         1 A1A       0.030033
     94 H46        212.4740   224.5840   202.9280 hc         1 A1A       0.030033
     95 H47        209.7660   226.1400   194.6550 hc         1 A1A       0.037200
     96 H48        208.8510   227.2530   193.6740 hc         1 A1A       0.037200
     97 H49        207.5650   226.7120   195.6450 hc         1 A1A       0.038700
     98 H50        206.7420   226.1360   194.2140 hc         1 A1A       0.038700
     99 H51        206.5610   224.5100   196.0120 hc         1 A1A       0.037200
    100 H52        207.4540   223.8110   194.6870 hc         1 A1A       0.037200
    101 H53        209.5980   224.2060   195.8880 hc         1 A1A       0.037200
    102 H54        208.7460   225.0240   197.1770 hc         1 A1A       0.037200
    103 H55        208.5880   225.6740   186.3190 hc         1 A1A       0.064200
    104 H56        209.6170   224.8940   185.1550 hc         1 A1A       0.064200
    105 H57        211.6320   225.8900   186.3800 hc         1 A1A       0.050700
    106 H58        210.5190   226.5410   187.5660 hc         1 A1A       0.050700
    107 H59        209.7030   224.1840   188.0200 hc         1 A1A       0.037700
    108 H60        210.8410   223.5910   186.8390 hc         1 A1A       0.037700
    109 H61        211.8350   223.2430   188.9860 hc         1 A1A       0.034700
    110 H62        212.7420   224.5010   188.1780 hc         1 A1A       0.034700
    111 H63        212.4670   225.0900   190.5000 hc         1 A1A       0.036700
    112 H64        211.5540   226.2350   189.5520 hc         1 A1A       0.036700
    113 H65        209.4440   224.9910   190.0740 hc         1 A1A       0.039200
    114 H66        210.3700   223.7940   190.9530 hc         1 A1A       0.039200
    115 H67        211.1410   225.6180   192.5300 hc         1 A1A       0.034700
    116 H68        210.1320   226.7540   191.6620 hc         1 A1A       0.034700
    117 H69        208.1170   225.3370   192.2140 hc         1 A1A       0.040200
    118 H70        209.1530   224.2650   193.1320 hc         1 A1A       0.040200
    119 H71        207.4880   222.9120   197.6750 hc         1 A1A       0.036200
    120 H72        208.3450   222.0990   196.3840 hc         1 A1A       0.036200
    121 H73        210.1590   220.9890   199.5010 hc         1 A1A       0.030033
    122 H74        208.4170   221.2180   199.3850 hc         1 A1A       0.030033
    123 H75        209.2820   220.3890   198.0960 hc         1 A1A       0.030033
    124 H76        210.5140   222.5220   197.5640 hc         1 A1A       0.036200
    125 H77        209.6550   223.3380   198.8480 hc         1 A1A       0.036200
    126 C1         206.2240   227.2620   187.0190 c          1 A1A       0.589100
    127 O03        208.6510   227.1550   184.0010 os         1 A1A      -0.438100
@<TRIPOS>BOND
     1     1     2 1   
     2     1    15 1   
     3     1    50 1   
     4     1    51 1   
     5     2    52 1   
     6     3    15 1   
     7     3    53 1   
     8     4    27 1   
     9     4    29 1   
    10     4    31 1   
    11     4    33 1   
    12     5     7 1   
    13     5    54 1   
    14     5    55 1   
    15     5   127 1   
    16     6     7 1   
    17     6   126 1   
    18     7    10 1   
    19     7    56 1   
    20     8    11 1   
    21     8    57 1   
    22     8    58 1   
    23     8   126 1   
    24     9   126 2   
    25    10    27 1   
    26    10    59 1   
    27    10    60 1   
    28    11    13 1   
    29    11    61 1   
    30    11    62 1   
    31    12    15 1   
    32    12    29 1   
    33    12    63 1   
    34    12    64 1   
    35    13    16 1   
    36    13    65 1   
    37    13    66 1   
    38    14    38 2   
    39    15    67 1   
    40    16    18 1   
    41    16    68 1   
    42    16    69 1   
    43    17    19 1   
    44    17    25 1   
    45    17    70 1   
    46    17    71 1   
    47    18    20 1   
    48    18    72 1   
    49    18    73 1   
    50    19    21 1   
    51    19    74 1   
    52    19    75 1   
    53    20    22 1   
    54    20    76 1   
    55    20    77 1   
    56    21    23 1   
    57    21    78 1   
    58    21    79 1   
    59    22    24 1   
    60    22    80 1   
    61    22    81 1   
    62    23    26 1   
    63    23    82 1   
    64    23    83 1   
    65    24    25 2   
    66    24    84 1   
    67    25    85 1   
    68    26    28 1   
    69    26    86 1   
    70    26    87 1   
    71    28    30 1   
    72    28    88 1   
    73    28    89 1   
    74    30    32 1   
    75    30    90 1   
    76    30    91 1   
    77    32    92 1   
    78    32    93 1   
    79    32    94 1   
    80    34    35 1   
    81    34    46 1   
    82    34    95 1   
    83    34    96 1   
    84    35    36 1   
    85    35    97 1   
    86    35    98 1   
    87    36    37 1   
    88    36    99 1   
    89    36   100 1   
    90    37    47 1   
    91    37   101 1   
    92    37   102 1   
    93    38    39 1   
    94    38   127 1   
    95    39    40 1   
    96    39   103 1   
    97    39   104 1   
    98    40    41 1   
    99    40   105 1   
   100    40   106 1   
   101    41    42 1   
   102    41   107 1   
   103    41   108 1   
   104    42    43 1   
   105    42   109 1   
   106    42   110 1   
   107    43    44 1   
   108    43   111 1   
   109    43   112 1   
   110    44    45 1   
   111    44   113 1   
   112    44   114 1   
   113    45    46 1   
   114    45   115 1   
   115    45   116 1   
   116    46   117 1   
   117    46   118 1   
   118    47    49 1   
   119    47   119 1   
   120    47   120 1   
   121    48    49 1   
   122    48   121 1   
   123    48   122 1   
   124    48   123 1   
   125    49   124 1   
   126    49   125 1   
@<TRIPOS>SUBSTRUCTURE
     1 A1A         1 TEMP              0 ****  ****    0 ROOT
