@<TRIPOS>MOLECULE
A1A
   40    42     1     0     0
SMALL
No Charge or Current Charge


@<TRIPOS>ATOM
      1 C4          31.2330     8.8680    -8.5430 ca         1 A1A      -0.176000
      2 C7          29.2420     8.2450    -5.4870 ca         1 A1A      -0.161000
      3 C6          29.9970     7.9990    -6.6450 ca         1 A1A      -0.036000
      4 C13         31.0400    13.8380    -8.2260 c5         1 A1A       0.105700
      5 C20         30.2770     6.6890    -7.0650 ca         1 A1A      -0.027000
      6 C21         31.0390     6.4410    -8.2310 ca         1 A1A      -0.150600
      7 C8          28.9860     9.5700    -5.1040 ca         1 A1A       0.354900
      8 C16         31.1590    12.8290   -10.4280 c5         1 A1A      -0.167400
      9 C1          32.7930     8.4200   -10.9300 c3         1 A1A       0.148900
     10 C3          31.5220     7.5530    -8.9770 ca         1 A1A       0.159100
     11 C5          30.4690     9.0990    -7.3790 ca         1 A1A      -0.048000
     12 N9          29.4320    10.6380    -5.8010 nb         1 A1A      -0.764000
     13 C10         30.1610    10.4080    -6.9190 ca         1 A1A       0.597300
     14 O11         30.6160    11.4850    -7.6480 os         1 A1A      -0.467300
     15 C12         30.4180    12.8430    -7.2000 c3         1 A1A       0.148600
     16 C15         30.3480    13.8800    -9.6300 c5         1 A1A      -0.078400
     17 C17         32.5650    12.9740    -9.8630 c          1 A1A       0.567000
     18 O18         33.6380    12.9170   -10.4410 o          1 A1A      -0.560000
     19 N19         32.4200    13.5030    -8.6080 ns         1 A1A      -0.504900
     20 C22         31.2920     4.9920    -8.6080 c          1 A1A       0.621700
     21 O23         30.8630     4.0610    -7.9440 o          1 A1A      -0.622100
     22 N24         32.0110     4.7020    -9.7090 nt         1 A1A      -0.593000
     23 H28         31.5980     9.7240    -9.1000 ha         1 A1A       0.136000
     24 H29         28.8540     7.4280    -4.8840 ha         1 A1A       0.131000
     25 H14         30.9890    14.8350    -7.7660 h1         1 A1A       0.069700
     26 H38         29.8960     5.8580    -6.4750 ha         1 A1A       0.150000
     27 H30         28.4020     9.7840    -4.2090 h4         1 A1A       0.021100
     28 H36         31.1470    12.9480   -11.5170 hc         1 A1A       0.074700
     29 H35         30.7900    11.8300   -10.1770 hc         1 A1A       0.074700
     30 H27         33.3520     8.0170   -11.7830 h1         1 A1A       0.050700
     31 H26         31.9800     9.0440   -11.3230 h1         1 A1A       0.050700
     32 H25         33.4750     9.0520   -10.3470 h1         1 A1A       0.050700
     33 H32         30.9020    12.9970    -6.2270 h1         1 A1A       0.058200
     34 H31         29.3490    13.0690    -7.0870 h1         1 A1A       0.058200
     35 H34         30.4560    14.8740   -10.0810 hc         1 A1A       0.059200
     36 H33         29.2750    13.6570    -9.5900 hc         1 A1A       0.059200
     37 H37         33.2540    13.7650    -8.0960 hn         1 A1A       0.326500
     38 H39         32.1780     3.7390    -9.9570 hn         1 A1A       0.325500
     39 H40         32.3750     5.4590   -10.2700 hn         1 A1A       0.325500
     40 O2          32.2720     7.3450   -10.1220 os         1 A1A      -0.367100
@<TRIPOS>BOND
     1     1    10 ar  
     2     1    11 ar  
     3     1    23 1   
     4     2     3 ar  
     5     2     7 ar  
     6     2    24 1   
     7     3     5 ar  
     8     3    11 ar  
     9     4    15 1   
    10     4    16 1   
    11     4    19 1   
    12     4    25 1   
    13     5     6 ar  
    14     5    26 1   
    15     6    10 ar  
    16     6    20 1   
    17     7    12 ar  
    18     7    27 1   
    19     8    16 1   
    20     8    17 1   
    21     8    28 1   
    22     8    29 1   
    23     9    30 1   
    24     9    31 1   
    25     9    32 1   
    26     9    40 1   
    27    10    40 1   
    28    11    13 ar  
    29    12    13 ar  
    30    13    14 1   
    31    14    15 1   
    32    15    33 1   
    33    15    34 1   
    34    16    35 1   
    35    16    36 1   
    36    17    18 2   
    37    17    19 1   
    38    19    37 1   
    39    20    21 2   
    40    20    22 1   
    41    22    38 1   
    42    22    39 1   
@<TRIPOS>SUBSTRUCTURE
     1 A1A         1 TEMP              0 ****  ****    0 ROOT
