@<TRIPOS>MOLECULE
A1A
   17    17     1     0     0
SMALL
abcg2


@<TRIPOS>ATOM
      1 C01        116.7140   133.5300    92.2780 c3         1 A1A      -0.117400
      2 C02        116.3840   132.8130    93.5450 cc         1 A1A       0.292300
      3 C03        117.2350   132.5500    94.5760 cd         1 A1A      -0.213300
      4 C05        114.9380   131.7530    94.8460 cd         1 A1A       0.450700
      5 C07        113.6570   131.1640    95.3260 c3         1 A1A      -0.129400
      6 C08        118.6780   132.8840    94.7440 c3         1 A1A      -0.014800
      7 N06        115.0980   132.3570    93.7170 nc         1 A1A      -0.647000
      8 S04        116.3750   131.6930    95.8070 ss         1 A1A      -0.080400
      9 H012       116.5590   132.8830    91.4130 hc         1 A1A       0.048033
     10 H011       116.0690   134.4010    92.1470 hc         1 A1A       0.048033
     11 H013       117.7450   133.8740    92.2540 hc         1 A1A       0.048033
     12 H073       113.7690   130.1080    95.5700 hc         1 A1A       0.058033
     13 H072       113.3000   131.6720    96.2220 hc         1 A1A       0.058033
     14 H071       112.8990   131.2610    94.5520 hc         1 A1A       0.058033
     15 H082       119.2900   131.9870    94.8410 hc         1 A1A       0.047700
     16 H081       119.0470   133.4420    93.8860 hc         1 A1A       0.047700
     17 H083       118.8490   133.4950    95.6320 hc         1 A1A       0.047700
@<TRIPOS>BOND
     1     1     2 1   
     2     1     9 1   
     3     1    10 1   
     4     1    11 1   
     5     2     3 2   
     6     2     7 1   
     7     3     6 1   
     8     3     8 1   
     9     4     5 1   
    10     4     7 2   
    11     4     8 1   
    12     5    12 1   
    13     5    13 1   
    14     5    14 1   
    15     6    15 1   
    16     6    16 1   
    17     6    17 1   
@<TRIPOS>SUBSTRUCTURE
     1 A1A         1 TEMP              0 ****  ****    0 ROOT
