@<TRIPOS>MOLECULE
A1A
   17    17     1     0     0
SMALL
No Charge or Current Charge


@<TRIPOS>ATOM
      1 C01        116.7130   133.5840    92.3160 c3         1 A1A      -0.117400
      2 C02        116.3560   132.8280    93.5650 cc         1 A1A       0.292300
      3 C03        117.2400   132.4460    94.5490 cd         1 A1A      -0.213300
      4 C05        114.9350   131.8200    94.9160 cd         1 A1A       0.450700
      5 C07        113.6080   131.3090    95.3970 c3         1 A1A      -0.129400
      6 C08        118.7270   132.6880    94.6070 c3         1 A1A      -0.014800
      7 N06        115.0470   132.4740    93.7690 nc         1 A1A      -0.647000
      8 S04        116.4150   131.5830    95.8360 ss         1 A1A      -0.080400
      9 H012       117.4400   133.0220    91.7190 hc         1 A1A       0.048033
     10 H011       115.8330   133.7690    91.6890 hc         1 A1A       0.048033
     11 H013       117.1570   134.5540    92.5660 hc         1 A1A       0.048033
     12 H073       113.7070   130.8010    96.3620 hc         1 A1A       0.058033
     13 H072       112.8960   132.1330    95.5210 hc         1 A1A       0.058033
     14 H071       113.1830   130.5960    94.6820 hc         1 A1A       0.058033
     15 H082       119.2330   132.2300    93.7490 hc         1 A1A       0.047700
     16 H081       118.9510   133.7620    94.5950 hc         1 A1A       0.047700
     17 H083       119.1670   132.2660    95.5180 hc         1 A1A       0.047700
@<TRIPOS>BOND
     1     1     2 1   
     2     1     9 1   
     3     1    10 1   
     4     1    11 1   
     5     2     3 2   
     6     2     7 1   
     7     3     6 1   
     8     3     8 1   
     9     4     5 1   
    10     4     7 2   
    11     4     8 1   
    12     5    12 1   
    13     5    13 1   
    14     5    14 1   
    15     6    15 1   
    16     6    16 1   
    17     6    17 1   
@<TRIPOS>SUBSTRUCTURE
     1 A1A         1 TEMP              0 ****  ****    0 ROOT
