@<TRIPOS>MOLECULE
A1A
   43    45     1     0     0
SMALL
No Charge or Current Charge


@<TRIPOS>ATOM
      1 C4          31.3570     7.6220    -8.9810 ca         1 A1A       0.178100
      2 C7          29.8900     8.0840    -6.6150 ca         1 A1A      -0.034000
      3 C6          30.3790     9.1770    -7.3460 ca         1 A1A      -0.049000
      4 C9          28.9520     9.6690    -5.0420 ca         1 A1A       0.355900
      5 C13         30.4080    12.9200    -7.1690 c3         1 A1A       0.146600
      6 C21         30.1270     6.7700    -7.0510 ca         1 A1A      -0.060000
      7 C8          29.1650     8.3400    -5.4400 ca         1 A1A      -0.169000
      8 C18         32.4300    12.9660    -9.9220 c          1 A1A       0.567000
      9 C16         30.2500    13.9370    -9.6030 c5         1 A1A      -0.079400
     10 C2          32.4340     8.4230   -11.0930 c3         1 A1A       0.158600
     11 O3          32.0630     7.3940   -10.1510 os         1 A1A      -0.333100
     12 C5          31.1190     8.9380    -8.5230 ca         1 A1A      -0.178000
     13 N10         29.4110    10.7310    -5.7390 nb         1 A1A      -0.766000
     14 C11         30.1130    10.4890    -6.8720 ca         1 A1A       0.600300
     15 O12         30.5750    11.5570    -7.6100 os         1 A1A      -0.468300
     16 C14         31.0040    13.8940    -8.2310 c5         1 A1A       0.103700
     17 C17         30.9960    12.8540   -10.4230 c5         1 A1A      -0.168400
     18 N20         32.3570    13.5240    -8.6730 ns         1 A1A      -0.502900
     19 C22         30.8630     6.5160    -8.2370 ca         1 A1A      -0.150600
     20 C23         31.1090     5.0830    -8.6790 c          1 A1A       0.627700
     21 O24         31.9680     4.7440    -9.4760 o          1 A1A      -0.577100
     22 N25         30.3510     4.1130    -8.1180 nt         1 A1A      -0.609000
     23 H33         28.3920     9.8910    -4.1340 h4         1 A1A       0.019100
     24 H34         30.9290    13.0780    -6.2150 h1         1 A1A       0.058200
     25 H35         29.3460    13.1610    -7.0210 h1         1 A1A       0.058200
     26 H41         29.7460     5.9530    -6.4440 ha         1 A1A       0.124000
     27 H32         28.7670     7.5290    -4.8370 ha         1 A1A       0.126000
     28 H36         30.3650    14.9220   -10.0720 hc         1 A1A       0.058200
     29 H37         29.1750    13.7440    -9.5120 hc         1 A1A       0.058200
     30 H27         31.4470     9.6270   -12.6160 hc         1 A1A       0.045700
     31 H26         30.7010     8.0360   -12.3640 hc         1 A1A       0.045700
     32 H28         30.4390     9.3420   -11.1860 hc         1 A1A       0.045700
     33 H30         33.1460     8.0130   -11.8210 h1         1 A1A       0.065700
     34 H29         32.9300     9.2690   -10.6000 h1         1 A1A       0.065700
     35 H31         31.5050     9.7890    -9.0720 ha         1 A1A       0.141000
     36 H15         30.9950    14.8950    -7.7790 h1         1 A1A       0.071700
     37 H38         30.9400    12.9600   -11.5110 hc         1 A1A       0.076700
     38 H39         30.6120    11.8690   -10.1430 hc         1 A1A       0.076700
     39 H40         33.2200    13.7690    -8.2020 hn         1 A1A       0.325500
     40 H43         30.5050     3.1540    -8.3890 hn         1 A1A       0.315000
     41 H42         29.6170     4.3510    -7.4690 hn         1 A1A       0.315000
     42 O19         33.4740    12.8630   -10.5450 o          1 A1A      -0.561000
     43 C1          31.1740     8.8850   -11.8570 c3         1 A1A      -0.125100
@<TRIPOS>BOND
     1     1    11 1   
     2     1    12 ar  
     3     1    19 ar  
     4     2     3 ar  
     5     2     6 ar  
     6     2     7 ar  
     7     3    12 ar  
     8     3    14 ar  
     9     4     7 ar  
    10     4    13 ar  
    11     4    23 1   
    12     5    15 1   
    13     5    16 1   
    14     5    24 1   
    15     5    25 1   
    16     6    19 ar  
    17     6    26 1   
    18     7    27 1   
    19     8    17 1   
    20     8    18 1   
    21     8    42 2   
    22     9    16 1   
    23     9    17 1   
    24     9    28 1   
    25     9    29 1   
    26    10    11 1   
    27    10    33 1   
    28    10    34 1   
    29    10    43 1   
    30    12    35 1   
    31    13    14 ar  
    32    14    15 1   
    33    16    18 1   
    34    16    36 1   
    35    17    37 1   
    36    17    38 1   
    37    18    39 1   
    38    19    20 1   
    39    20    21 2   
    40    20    22 1   
    41    22    40 1   
    42    22    41 1   
    43    30    43 1   
    44    31    43 1   
    45    32    43 1   
@<TRIPOS>SUBSTRUCTURE
     1 A1A         1 TEMP              0 ****  ****    0 ROOT
