@<TRIPOS>MOLECULE
A1A
   43    45     1     0     0
SMALL
abcg2


@<TRIPOS>ATOM
      1 C4          31.3680     7.7120    -8.9180 ca         1 A1A       0.178100
      2 C7          29.9770     8.1950    -6.5160 ca         1 A1A      -0.034000
      3 C6          30.4710     9.2550    -7.2970 ca         1 A1A      -0.049000
      4 C9          29.1900     9.7960    -4.9280 ca         1 A1A       0.355900
      5 C13         30.5830    12.9070    -7.1240 c3         1 A1A       0.146600
      6 C21         30.1740     6.8790    -6.9850 ca         1 A1A      -0.060000
      7 C8          29.3160     8.4920    -5.2990 ca         1 A1A      -0.169000
      8 C18         32.1120    12.7230   -10.0250 c          1 A1A       0.567000
      9 C16         29.9530    13.6420    -9.4970 c5         1 A1A      -0.079400
     10 C2          32.5480     8.3500   -10.9050 c3         1 A1A       0.158600
     11 O3          32.0230     7.3550   -10.0310 os         1 A1A      -0.333100
     12 C5          31.1600     9.0050    -8.4990 ca         1 A1A      -0.178000
     13 N10         29.6480    10.8320    -5.6730 nb         1 A1A      -0.766000
     14 C11         30.2390    10.5760    -6.7970 ca         1 A1A       0.600300
     15 O12         30.6740    11.5650    -7.5740 os         1 A1A      -0.468300
     16 C14         30.9160    13.8000    -8.3070 c5         1 A1A       0.103700
     17 C17         30.6570    12.6740   -10.4430 c5         1 A1A      -0.168400
     18 N20         32.1920    13.4640    -8.9020 ns         1 A1A      -0.502900
     19 C22         30.8550     6.6350    -8.1460 ca         1 A1A      -0.150600
     20 C23         31.1280     5.2170    -8.5600 c          1 A1A       0.627700
     21 O24         32.2620     4.7740    -8.6070 o          1 A1A      -0.577100
     22 N25         30.0280     4.5010    -8.8280 nt         1 A1A      -0.609000
     23 H33         28.7030    10.0650    -3.9990 h4         1 A1A       0.019100
     24 H34         31.2820    13.0730    -6.2980 h1         1 A1A       0.058200
     25 H35         29.5780    13.1380    -6.7620 h1         1 A1A       0.058200
     26 H41         29.7910     6.0520    -6.3980 ha         1 A1A       0.124000
     27 H32         28.9290     7.6970    -4.6760 ha         1 A1A       0.126000
     28 H36         29.8210    14.6100    -9.9800 hc         1 A1A       0.058200
     29 H37         28.9680    13.3000    -9.1830 hc         1 A1A       0.058200
     30 H27         31.9630     9.6610   -12.4890 hc         1 A1A       0.045700
     31 H26         31.0580     8.1470   -12.4570 hc         1 A1A       0.045700
     32 H28         30.6940     9.4260   -11.2940 hc         1 A1A       0.045700
     33 H30         33.3150     7.8350   -11.4830 h1         1 A1A       0.065700
     34 H29         33.0510     9.1380   -10.3380 h1         1 A1A       0.065700
     35 H31         31.5260     9.8400    -9.0770 ha         1 A1A       0.141000
     36 H15         30.9220    14.8280    -7.9380 h1         1 A1A       0.071700
     37 H38         30.5550    12.9430   -11.4950 hc         1 A1A       0.076700
     38 H39         30.2990    11.6480   -10.3390 hc         1 A1A       0.076700
     39 H40         33.0560    13.5420    -8.3870 hn         1 A1A       0.325500
     40 H43         30.1010     3.5280    -9.0810 hn         1 A1A       0.315000
     41 H42         29.1100     4.9120    -8.8170 hn         1 A1A       0.315000
     42 O19         33.0480    12.1910   -10.5980 o          1 A1A      -0.561000
     43 C1          31.4980     8.9250   -11.8330 c3         1 A1A      -0.125100
@<TRIPOS>BOND
     1     1    11 1   
     2     1    12 ar  
     3     1    19 ar  
     4     2     3 ar  
     5     2     6 ar  
     6     2     7 ar  
     7     3    12 ar  
     8     3    14 ar  
     9     4     7 ar  
    10     4    13 ar  
    11     4    23 1   
    12     5    15 1   
    13     5    16 1   
    14     5    24 1   
    15     5    25 1   
    16     6    19 ar  
    17     6    26 1   
    18     7    27 1   
    19     8    17 1   
    20     8    18 1   
    21     8    42 2   
    22     9    16 1   
    23     9    17 1   
    24     9    28 1   
    25     9    29 1   
    26    10    11 1   
    27    10    33 1   
    28    10    34 1   
    29    10    43 1   
    30    12    35 1   
    31    13    14 ar  
    32    14    15 1   
    33    16    18 1   
    34    16    36 1   
    35    17    37 1   
    36    17    38 1   
    37    18    39 1   
    38    19    20 1   
    39    20    21 2   
    40    20    22 1   
    41    22    40 1   
    42    22    41 1   
    43    30    43 1   
    44    31    43 1   
    45    32    43 1   
@<TRIPOS>SUBSTRUCTURE
     1 A1A         1 TEMP              0 ****  ****    0 ROOT
