@<TRIPOS>MOLECULE
A1A
   19    18     1     0     0
SMALL
abcg2


@<TRIPOS>ATOM
      1 C02         84.1810   124.6820   107.8270 c3         1 A1A       0.220000
      2 C03         83.2120   124.3600   106.6830 c3         1 A1A      -0.108100
      3 C04         84.7240   123.3750   108.4260 c3         1 A1A      -0.241400
      4 C05         85.6480   122.5790   107.4860 c          1 A1A       0.718000
      5 C08         83.4770   125.4870   108.9300 c3         1 A1A      -0.197400
      6 C09         83.1940   126.8960   108.5080 c          1 A1A       0.604900
      7 O01         85.2460   125.4860   107.3640 oh         1 A1A      -0.737000
      8 O06         85.6600   121.3460   107.5860 o          1 A1A      -0.724000
      9 O07         86.3640   123.2640   106.7010 o          1 A1A      -0.724000
     10 O10         83.4800   127.8750   109.1550 o          1 A1A      -0.561100
     11 H1          82.3690   123.7630   107.0350 hc         1 A1A       0.028367
     12 H2          82.8090   125.2630   106.2210 hc         1 A1A       0.028367
     13 H3          83.7170   123.7940   105.9000 hc         1 A1A       0.028367
     14 H4          83.8960   122.7470   108.7600 hc         1 A1A       0.032700
     15 H5          85.3060   123.6180   109.3230 hc         1 A1A       0.032700
     16 H6          82.5210   125.0100   109.1750 hc         1 A1A       0.055200
     17 H7          84.0800   125.5050   109.8400 hc         1 A1A       0.055200
     18 H8          82.6680   127.0070   107.5440 h4         1 A1A      -0.028800
     19 H9          85.8610   124.8210   106.9600 ho         1 A1A       0.519000
@<TRIPOS>BOND
     1     1     2 1   
     2     1     3 1   
     3     1     5 1   
     4     1     7 1   
     5     2    11 1   
     6     2    12 1   
     7     2    13 1   
     8     3     4 1   
     9     3    14 1   
    10     3    15 1   
    11     4     8 1   
    12     4     9 1   
    13     5     6 1   
    14     5    16 1   
    15     5    17 1   
    16     6    10 2   
    17     6    18 1   
    18     7    19 1   
@<TRIPOS>SUBSTRUCTURE
     1 A1A         1 TEMP              0 ****  ****    0 ROOT
