@<TRIPOS>MOLECULE
A1A
   75    78     1     0     0
SMALL
abcg2


@<TRIPOS>ATOM
      1 C11        -67.3760   -22.0180   -36.3930 ca         1 A1A      -0.108500
      2 C13        -67.6600   -26.7230   -37.9290 c3         1 A1A      -0.097400
      3 C14        -66.2340   -27.1500   -38.2580 c3         1 A1A       0.101000
      4 C16        -65.7170   -29.3410   -39.3800 c3         1 A1A       0.027700
      5 C17        -64.4000   -28.9380   -40.0340 c3         1 A1A      -0.073400
      6 C18        -63.9860   -29.8030   -41.2290 c3         1 A1A      -0.061700
      7 C19        -62.6640   -29.2890   -41.7900 c3         1 A1A      -0.089100
      8 C21        -66.9150   -29.2010   -40.3220 c          1 A1A       0.590100
      9 C22        -69.1660   -30.0470   -40.8020 c3         1 A1A       0.148300
     10 C23        -70.1290   -29.0630   -40.1870 ca         1 A1A      -0.104300
     11 C24        -70.9350   -29.4410   -39.1160 ca         1 A1A      -0.087000
     12 C25        -71.8100   -28.5410   -38.5340 ca         1 A1A      -0.102000
     13 C26        -71.8850   -27.2410   -39.0130 ca         1 A1A       0.119000
     14 C28        -70.2070   -27.7590   -40.6570 ca         1 A1A      -0.072000
     15 C1         -66.2250   -29.1150   -34.4390 c5         1 A1A      -0.079400
     16 C2         -67.6470   -29.4880   -34.0510 c5         1 A1A       0.147500
     17 O1         -66.9760   -28.3390   -41.1860 o          1 A1A      -0.608100
     18 C3         -68.4050   -28.2690   -34.5500 c5         1 A1A       0.174800
     19 C4         -68.0410   -26.7050   -36.4490 c3         1 A1A       0.202500
     20 N1         -65.9870   -28.5860   -38.1600 n          1 A1A      -0.405800
     21 C5         -69.5000   -26.2810   -36.2850 c3         1 A1A      -0.074400
     22 C6         -69.8360   -24.8900   -36.8310 c3         1 A1A      -0.034100
     23 N2         -67.8980   -30.0900   -40.1040 ns         1 A1A      -0.497900
     24 C7         -69.0200   -23.7870   -36.2110 ca         1 A1A      -0.078300
     25 C8         -69.1330   -23.5020   -34.8500 ca         1 A1A      -0.110500
     26 C9         -68.3790   -22.4940   -34.2670 ca         1 A1A      -0.108500
     27 C10        -67.4950   -21.7470   -35.0370 ca         1 A1A      -0.113000
     28 C12        -68.1320   -23.0310   -36.9710 ca         1 A1A      -0.110500
     29 C15        -66.0610   -29.2440   -36.9790 c          1 A1A       0.581000
     30 C20        -63.8690   -31.2810   -40.8680 c3         1 A1A      -0.089100
     31 C27        -71.0750   -26.8500   -40.0710 ca         1 A1A       0.109000
     32 CL         -71.1270   -25.2320   -40.6620 cl         1 A1A      -0.173000
     33 CL1        -72.9880   -26.1350   -38.2860 cl         1 A1A      -0.175000
     34 O          -65.9060   -30.4530   -36.8830 o          1 A1A      -0.577000
     35 C          -66.3870   -28.3790   -35.7690 c5         1 A1A       0.108500
     36 N          -67.8090   -28.0110   -35.8510 n3         1 A1A      -0.747600
     37 H1         -66.6920   -21.4420   -37.0040 ha         1 A1A       0.112000
     38 H2         -67.7780   -25.7130   -38.3250 hc         1 A1A       0.059700
     39 H3         -68.3680   -27.3560   -38.4750 hc         1 A1A       0.059700
     40 H4         -65.5200   -26.5970   -37.6430 h1         1 A1A       0.056700
     41 H5         -66.0240   -26.8550   -39.2840 h1         1 A1A       0.056700
     42 H6         -65.6430   -30.3820   -39.0700 h1         1 A1A       0.094700
     43 H7         -63.6230   -29.0060   -39.2660 hc         1 A1A       0.053200
     44 H8         -64.4370   -27.8930   -40.3500 hc         1 A1A       0.053200
     45 H9         -64.7420   -29.7000   -42.0140 hc         1 A1A       0.058700
     46 H10        -62.7300   -28.2370   -42.0720 hc         1 A1A       0.033533
     47 H11        -61.8640   -29.3860   -41.0530 hc         1 A1A       0.033533
     48 H12        -62.3660   -29.8520   -42.6760 hc         1 A1A       0.033533
     49 H13        -69.5900   -31.0490   -40.7750 h1         1 A1A       0.064200
     50 H14        -68.9880   -29.8010   -41.8490 h1         1 A1A       0.064200
     51 H15        -70.8900   -30.4540   -38.7350 ha         1 A1A       0.120000
     52 H16        -72.4400   -28.8460   -37.7100 ha         1 A1A       0.132000
     53 H17        -69.5890   -27.4410   -41.4860 ha         1 A1A       0.149000
     54 H18        -65.5490   -29.9670   -34.4960 hc         1 A1A       0.066700
     55 H19        -65.8320   -28.4270   -33.6880 hc         1 A1A       0.066700
     56 H20        -67.9620   -30.3570   -34.6470 h1         1 A1A       0.042700
     57 H21        -68.2560   -27.4470   -33.8310 h1         1 A1A       0.045700
     58 H22        -69.4780   -28.4490   -34.6340 h1         1 A1A       0.045700
     59 H23        -67.4060   -25.9520   -35.9450 h1         1 A1A       0.029700
     60 H24        -69.7680   -26.2930   -35.2270 hc         1 A1A       0.048200
     61 H25        -70.1420   -27.0210   -36.7720 hc         1 A1A       0.048200
     62 H26        -69.7270   -24.8600   -37.9170 hc         1 A1A       0.054200
     63 H27        -70.8950   -24.7080   -36.6350 hc         1 A1A       0.054200
     64 H28        -67.8110   -30.7350   -39.3340 hn         1 A1A       0.327500
     65 H29        -68.7620   -29.9510   -32.4230 hn         1 A1A       0.397000
     66 H30        -67.2460   -30.4850   -32.3350 hn         1 A1A       0.397000
     67 H32        -69.8220   -24.0730   -34.2380 ha         1 A1A       0.110000
     68 H33        -68.4830   -22.2880   -33.2090 ha         1 A1A       0.112000
     69 H34        -66.9070   -20.9600   -34.5840 ha         1 A1A       0.112000
     70 H35        -68.0330   -23.2340   -38.0310 ha         1 A1A       0.110000
     71 H36        -64.8240   -31.7190   -40.5740 hc         1 A1A       0.033533
     72 H37        -63.5030   -31.8580   -41.7180 hc         1 A1A       0.033533
     73 H38        -63.1660   -31.4260   -40.0430 hc         1 A1A       0.033533
     74 H39        -65.7450   -27.4870   -35.7710 h1         1 A1A       0.056700
     75 N3         -67.8040   -29.6900   -32.6230 n8         1 A1A      -0.995200
@<TRIPOS>BOND
     1     1    27 ar  
     2     1    28 ar  
     3     1    37 1   
     4     2     3 1   
     5     2    19 1   
     6     2    38 1   
     7     2    39 1   
     8     3    20 1   
     9     3    40 1   
    10     3    41 1   
    11     4     5 1   
    12     4     8 1   
    13     4    20 1   
    14     4    42 1   
    15     5     6 1   
    16     5    43 1   
    17     5    44 1   
    18     6     7 1   
    19     6    30 1   
    20     6    45 1   
    21     7    46 1   
    22     7    47 1   
    23     7    48 1   
    24     8    17 2   
    25     8    23 1   
    26     9    10 1   
    27     9    23 1   
    28     9    49 1   
    29     9    50 1   
    30    10    11 ar  
    31    10    14 ar  
    32    11    12 ar  
    33    11    51 1   
    34    12    13 ar  
    35    12    52 1   
    36    13    31 ar  
    37    13    33 1   
    38    14    31 ar  
    39    14    53 1   
    40    15    16 1   
    41    15    35 1   
    42    15    54 1   
    43    15    55 1   
    44    16    18 1   
    45    16    56 1   
    46    16    75 1   
    47    18    36 1   
    48    18    57 1   
    49    18    58 1   
    50    19    21 1   
    51    19    36 1   
    52    19    59 1   
    53    20    29 1   
    54    21    22 1   
    55    21    60 1   
    56    21    61 1   
    57    22    24 1   
    58    22    62 1   
    59    22    63 1   
    60    23    64 1   
    61    24    25 ar  
    62    24    28 ar  
    63    25    26 ar  
    64    25    67 1   
    65    26    27 ar  
    66    26    68 1   
    67    27    69 1   
    68    28    70 1   
    69    29    34 2   
    70    29    35 1   
    71    30    71 1   
    72    30    72 1   
    73    30    73 1   
    74    31    32 1   
    75    35    36 1   
    76    35    74 1   
    77    65    75 1   
    78    66    75 1   
@<TRIPOS>SUBSTRUCTURE
     1 A1A         1 TEMP              0 ****  ****    0 ROOT
