@<TRIPOS>MOLECULE
A1A
   75    78     1     0     0
SMALL
No Charge or Current Charge


@<TRIPOS>ATOM
      1 C11        -67.7000   -22.0470   -36.7960 ca         1 A1A      -0.108500
      2 C13        -67.7420   -26.8280   -37.8160 c3         1 A1A      -0.097400
      3 C14        -66.2700   -27.1490   -38.1220 c3         1 A1A       0.101000
      4 C16        -65.7440   -29.3090   -39.3690 c3         1 A1A       0.027700
      5 C17        -64.3280   -29.0160   -39.9460 c3         1 A1A      -0.073400
      6 C18        -63.9160   -29.8460   -41.1970 c3         1 A1A      -0.061700
      7 C19        -62.5400   -29.3850   -41.7290 c3         1 A1A      -0.089100
      8 C21        -66.8910   -29.0770   -40.3930 c          1 A1A       0.590100
      9 C22        -69.2100   -29.8210   -41.0080 c3         1 A1A       0.148300
     10 C23        -70.1830   -28.8300   -40.3880 ca         1 A1A      -0.104300
     11 C24        -71.1070   -29.2560   -39.4140 ca         1 A1A      -0.087000
     12 C25        -72.0060   -28.3390   -38.8420 ca         1 A1A      -0.102000
     13 C26        -71.9860   -26.9910   -39.2370 ca         1 A1A       0.119000
     14 C28        -70.1580   -27.4750   -40.7740 ca         1 A1A      -0.072000
     15 C1         -66.0350   -29.2010   -34.2460 c5         1 A1A      -0.079400
     16 C2         -67.4710   -29.5350   -33.7880 c5         1 A1A       0.147500
     17 O1         -66.8510   -28.2330   -41.2800 o          1 A1A      -0.608100
     18 C3         -68.1570   -28.1950   -34.1720 c5         1 A1A       0.174800
     19 C4         -68.1150   -26.8010   -36.3050 c3         1 A1A       0.202500
     20 N1         -65.9810   -28.6020   -38.0700 n          1 A1A      -0.405800
     21 C5         -69.6240   -26.4370   -36.1250 c3         1 A1A      -0.074400
     22 C6         -70.0650   -25.0720   -36.7140 c3         1 A1A      -0.034100
     23 N2         -67.9780   -29.9050   -40.2270 ns         1 A1A      -0.497900
     24 C7         -69.1990   -23.9000   -36.2620 ca         1 A1A      -0.078300
     25 C8         -69.0830   -23.5820   -34.8930 ca         1 A1A      -0.110500
     26 C9         -68.2770   -22.5080   -34.4790 ca         1 A1A      -0.108500
     27 C10        -67.5840   -21.7410   -35.4300 ca         1 A1A      -0.113000
     28 C12        -68.5060   -23.1220   -37.2110 ca         1 A1A      -0.110500
     29 C15        -65.7740   -29.2760   -36.8360 c          1 A1A       0.581000
     30 C20        -63.9170   -31.3720   -40.9360 c3         1 A1A      -0.089100
     31 C27        -71.0540   -26.5560   -40.2020 ca         1 A1A       0.109000
     32 Cl         -70.9880   -24.8680   -40.7100 cl         1 A1A      -0.173000
     33 Cl1        -73.1390   -25.8700   -38.5110 cl         1 A1A      -0.175000
     34 O          -65.3290   -30.4200   -36.8000 o          1 A1A      -0.577000
     35 C          -66.2570   -28.4160   -35.5930 c5         1 A1A       0.108500
     36 N          -67.7360   -28.0610   -35.5930 n3         1 A1A      -0.747600
     37 H1         -67.1650   -21.4530   -37.5340 ha         1 A1A       0.112000
     38 H2         -67.9450   -25.8440   -38.2500 hc         1 A1A       0.059700
     39 H3         -68.3890   -27.5390   -38.3420 hc         1 A1A       0.059700
     40 H4         -65.6030   -26.5920   -37.4510 h1         1 A1A       0.056700
     41 H5         -66.0500   -26.7830   -39.1340 h1         1 A1A       0.056700
     42 H6         -65.7800   -30.3840   -39.1650 h1         1 A1A       0.094700
     43 H7         -63.5900   -29.1900   -39.1540 hc         1 A1A       0.053200
     44 H8         -64.2630   -27.9490   -40.1930 hc         1 A1A       0.053200
     45 H9         -64.6430   -29.6510   -41.9950 hc         1 A1A       0.058700
     46 H10        -62.5550   -28.3150   -41.9690 hc         1 A1A       0.033533
     47 H11        -61.7540   -29.5590   -40.9850 hc         1 A1A       0.033533
     48 H12        -62.2750   -29.9300   -42.6430 hc         1 A1A       0.033533
     49 H13        -69.6710   -30.8170   -41.0480 h1         1 A1A       0.064200
     50 H14        -68.9750   -29.5250   -42.0400 h1         1 A1A       0.064200
     51 H15        -71.1300   -30.2970   -39.1010 ha         1 A1A       0.120000
     52 H16        -72.7210   -28.6730   -38.0950 ha         1 A1A       0.132000
     53 H17        -69.4420   -27.1310   -41.5170 ha         1 A1A       0.149000
     54 H18        -65.4110   -30.0950   -34.3380 hc         1 A1A       0.066700
     55 H19        -65.5350   -28.5550   -33.5160 hc         1 A1A       0.066700
     56 H20        -67.8880   -30.3640   -34.3800 h1         1 A1A       0.042700
     57 H21        -67.7980   -27.3580   -33.5560 h1         1 A1A       0.045700
     58 H22        -69.2470   -28.2680   -34.0600 h1         1 A1A       0.045700
     59 H23        -67.5370   -25.9850   -35.8510 h1         1 A1A       0.029700
     60 H24        -69.8720   -26.4100   -35.0590 hc         1 A1A       0.048200
     61 H25        -70.2410   -27.2310   -36.5640 hc         1 A1A       0.048200
     62 H26        -70.0830   -25.1370   -37.8070 hc         1 A1A       0.054200
     63 H27        -71.1040   -24.8870   -36.4160 hc         1 A1A       0.054200
     64 H28        -67.9440   -30.5590   -39.4540 hn         1 A1A       0.327500
     65 H29        -68.5240   -30.1440   -32.1280 hn         1 A1A       0.397000
     66 H30        -67.0570   -30.8010   -32.2200 hn         1 A1A       0.397000
     67 H32        -69.6180   -24.1680   -34.1490 ha         1 A1A       0.110000
     68 H33        -68.1910   -22.2700   -33.4210 ha         1 A1A       0.112000
     69 H34        -66.9600   -20.9090   -35.1090 ha         1 A1A       0.112000
     70 H35        -68.5880   -23.3480   -38.2710 ha         1 A1A       0.110000
     71 H36        -64.9260   -31.7390   -40.7180 hc         1 A1A       0.033533
     72 H37        -63.5550   -31.9150   -41.8180 hc         1 A1A       0.033533
     73 H38        -63.2660   -31.6240   -40.0900 hc         1 A1A       0.033533
     74 H39        -65.6340   -27.5130   -35.5550 h1         1 A1A       0.056700
     75 N3         -67.5510   -29.9120   -32.3600 n8         1 A1A      -0.995200
@<TRIPOS>BOND
     1     1    27 ar  
     2     1    28 ar  
     3     1    37 1   
     4     2     3 1   
     5     2    19 1   
     6     2    38 1   
     7     2    39 1   
     8     3    20 1   
     9     3    40 1   
    10     3    41 1   
    11     4     5 1   
    12     4     8 1   
    13     4    20 1   
    14     4    42 1   
    15     5     6 1   
    16     5    43 1   
    17     5    44 1   
    18     6     7 1   
    19     6    30 1   
    20     6    45 1   
    21     7    46 1   
    22     7    47 1   
    23     7    48 1   
    24     8    17 2   
    25     8    23 1   
    26     9    10 1   
    27     9    23 1   
    28     9    49 1   
    29     9    50 1   
    30    10    11 ar  
    31    10    14 ar  
    32    11    12 ar  
    33    11    51 1   
    34    12    13 ar  
    35    12    52 1   
    36    13    31 ar  
    37    13    33 1   
    38    14    31 ar  
    39    14    53 1   
    40    15    16 1   
    41    15    35 1   
    42    15    54 1   
    43    15    55 1   
    44    16    18 1   
    45    16    56 1   
    46    16    75 1   
    47    18    36 1   
    48    18    57 1   
    49    18    58 1   
    50    19    21 1   
    51    19    36 1   
    52    19    59 1   
    53    20    29 1   
    54    21    22 1   
    55    21    60 1   
    56    21    61 1   
    57    22    24 1   
    58    22    62 1   
    59    22    63 1   
    60    23    64 1   
    61    24    25 ar  
    62    24    28 ar  
    63    25    26 ar  
    64    25    67 1   
    65    26    27 ar  
    66    26    68 1   
    67    27    69 1   
    68    28    70 1   
    69    29    34 2   
    70    29    35 1   
    71    30    71 1   
    72    30    72 1   
    73    30    73 1   
    74    31    32 1   
    75    35    36 1   
    76    35    74 1   
    77    65    75 1   
    78    66    75 1   
@<TRIPOS>SUBSTRUCTURE
     1 A1A         1 TEMP              0 ****  ****    0 ROOT
