@<TRIPOS>MOLECULE
A1A
   72    77     1     0     0
SMALL
abcg2


@<TRIPOS>ATOM
      1 N1         -32.9290   -15.5410    -0.5100 nh         1 A1A      -0.811300
      2 C2         -30.4880   -12.7230    -2.2140 c5         1 A1A      -0.065400
      3 C4         -31.7960   -10.6270    -2.0100 ce         1 A1A      -0.062400
      4 C5         -31.6860    -9.4980    -2.9230 ca         1 A1A      -0.076800
      5 C6         -30.5430    -9.3190    -3.7070 ca         1 A1A      -0.055000
      6 C1         -31.7620   -13.4220    -1.7030 c5         1 A1A      -0.348700
      7 O1         -30.9170   -15.8740    -2.0470 o          1 A1A      -0.531500
      8 S1         -31.4290   -15.0270    -0.9790 s6         1 A1A       1.229100
      9 C3         -30.5970   -11.3790    -1.4490 c5         1 A1A       0.178500
     10 O4         -31.0760   -11.8130    -0.1900 os         1 A1A      -0.402000
     11 O5         -36.4280   -17.2850    -4.4670 os         1 A1A      -0.338100
     12 O6         -30.6230   -14.8610     0.2240 o          1 A1A      -0.531500
     13 C7         -30.4050    -8.2320    -4.5530 ca         1 A1A      -0.179000
     14 C8         -31.4140    -7.2760    -4.6280 ca         1 A1A       0.147100
     15 C9         -32.5590    -7.4330    -3.8460 ca         1 A1A      -0.179000
     16 C10        -32.6870    -8.5270    -3.0110 ca         1 A1A      -0.055000
     17 C11        -32.8640   -11.2870    -1.5260 cf         1 A1A      -0.086400
     18 C12        -34.2810   -11.2720    -1.8790 ca         1 A1A      -0.074800
     19 C13        -34.6990   -11.1650    -3.2090 ca         1 A1A      -0.058000
     20 C14        -36.0350   -11.2380    -3.5520 ca         1 A1A      -0.180500
     21 C15        -37.0020   -11.4230    -2.5630 ca         1 A1A       0.141100
     22 C16        -36.6040   -11.5310    -1.2320 ca         1 A1A      -0.180500
     23 C17        -35.2600   -11.4620    -0.9030 ca         1 A1A      -0.058000
     24 C18        -32.2710   -12.3860    -0.6610 c5         1 A1A       0.215500
     25 C19        -33.2250   -15.8430     0.9040 c6         1 A1A       0.251500
     26 C20        -33.0490   -17.3230     1.2280 c6         1 A1A      -0.086400
     27 C21        -33.3160   -17.5900     2.7070 c6         1 A1A      -0.073900
     28 C22        -34.6980   -17.0970     3.1200 c6         1 A1A      -0.076400
     29 C23        -34.8770   -15.6240     2.7740 c6         1 A1A      -0.073900
     30 C24        -34.6210   -15.3640     1.2910 c6         1 A1A      -0.086400
     31 C25        -33.8180   -15.9740    -1.5340 ca         1 A1A       0.198000
     32 C26        -34.8200   -15.1250    -1.9830 ca         1 A1A      -0.058500
     33 C27        -35.7180   -15.5240    -2.9640 ca         1 A1A      -0.172500
     34 C28        -35.6150   -16.8000    -3.5140 ca         1 A1A       0.153100
     35 C29        -37.4550   -16.4530    -4.9700 c3         1 A1A       0.147900
     36 C30        -34.6090   -17.6610    -3.0650 ca         1 A1A      -0.172500
     37 C31        -33.7220   -17.2500    -2.0910 ca         1 A1A      -0.058500
     38 H5         -29.5720   -13.2420    -1.9260 hc         1 A1A       0.069700
     39 H4         -30.4820   -12.6070    -3.2960 hc         1 A1A       0.069700
     40 H6         -29.7390   -10.0440    -3.6710 ha         1 A1A       0.118500
     41 H1         -32.4960   -13.6110    -2.4880 h1         1 A1A       0.113700
     42 H8         -31.9950    -5.6380    -5.4210 ho         1 A1A       0.467000
     43 H2         -29.6650   -10.8230    -1.3540 h1         1 A1A       0.105700
     44 H13        -38.8650   -11.6180    -2.1880 ho         1 A1A       0.467000
     45 H7         -29.5110    -8.1210    -5.1530 ha         1 A1A       0.123000
     46 H9         -33.3490    -6.6910    -3.8830 ha         1 A1A       0.123000
     47 H10        -33.5770    -8.6110    -2.4000 ha         1 A1A       0.118500
     48 H11        -33.9620   -11.0400    -3.9920 ha         1 A1A       0.122000
     49 H12        -36.3370   -11.1640    -4.5890 ha         1 A1A       0.123500
     50 H14        -37.3420   -11.6750    -0.4510 ha         1 A1A       0.123500
     51 H15        -34.9750   -11.5560     0.1380 ha         1 A1A       0.122000
     52 H3         -32.8920   -12.7790     0.1430 h1         1 A1A       0.105700
     53 H16        -32.5110   -15.2740     1.5000 h1         1 A1A       0.081700
     54 H17        -33.7450   -17.9130     0.6230 hc         1 A1A       0.046950
     55 H18        -32.0400   -17.6440     0.9600 hc         1 A1A       0.046950
     56 H19        -33.2110   -18.6570     2.9150 hc         1 A1A       0.043200
     57 H20        -32.5550   -17.0800     3.3080 hc         1 A1A       0.043200
     58 H21        -34.8520   -17.2550     4.1900 hc         1 A1A       0.041200
     59 H22        -35.4630   -17.6870     2.6050 hc         1 A1A       0.041200
     60 H23        -34.1850   -15.0230     3.3750 hc         1 A1A       0.043200
     61 H24        -35.8840   -15.2890     3.0340 hc         1 A1A       0.043200
     62 H26        -34.7240   -14.2990     1.0650 hc         1 A1A       0.046950
     63 H25        -35.3770   -15.8910     0.7020 hc         1 A1A       0.046950
     64 H27        -34.9140   -14.1340    -1.5570 ha         1 A1A       0.126000
     65 H28        -36.4830   -14.8280    -3.2800 ha         1 A1A       0.128000
     66 H29        -37.9800   -17.0340    -5.7240 h1         1 A1A       0.042700
     67 H31        -38.1660   -16.1660    -4.1910 h1         1 A1A       0.042700
     68 H30        -37.0570   -15.5480    -5.4370 h1         1 A1A       0.042700
     69 H32        -34.5290   -18.6530    -3.4910 ha         1 A1A       0.128000
     70 H33        -32.9480   -17.9270    -1.7550 ha         1 A1A       0.126000
     71 O2         -31.2320    -6.2270    -5.4510 oh         1 A1A      -0.530100
     72 O3         -38.2880   -11.4940    -2.9500 oh         1 A1A      -0.532100
@<TRIPOS>BOND
     1     1     8 1   
     2     1    25 1   
     3     1    31 1   
     4     2     6 1   
     5     2     9 1   
     6     2    38 1   
     7     2    39 1   
     8     3     4 1   
     9     3     9 1   
    10     3    17 2   
    11     4     5 ar  
    12     4    16 ar  
    13     5    13 ar  
    14     5    40 1   
    15     6     8 1   
    16     6    24 1   
    17     6    41 1   
    18     7     8 2   
    19     8    12 2   
    20     9    10 1   
    21     9    43 1   
    22    10    24 1   
    23    11    34 1   
    24    11    35 1   
    25    13    14 ar  
    26    13    45 1   
    27    14    15 ar  
    28    14    71 1   
    29    15    16 ar  
    30    15    46 1   
    31    16    47 1   
    32    17    18 1   
    33    17    24 1   
    34    18    19 ar  
    35    18    23 ar  
    36    19    20 ar  
    37    19    48 1   
    38    20    21 ar  
    39    20    49 1   
    40    21    22 ar  
    41    21    72 1   
    42    22    23 ar  
    43    22    50 1   
    44    23    51 1   
    45    24    52 1   
    46    25    26 1   
    47    25    30 1   
    48    25    53 1   
    49    26    27 1   
    50    26    54 1   
    51    26    55 1   
    52    27    28 1   
    53    27    56 1   
    54    27    57 1   
    55    28    29 1   
    56    28    58 1   
    57    28    59 1   
    58    29    30 1   
    59    29    60 1   
    60    29    61 1   
    61    30    62 1   
    62    30    63 1   
    63    31    32 ar  
    64    31    37 ar  
    65    32    33 ar  
    66    32    64 1   
    67    33    34 ar  
    68    33    65 1   
    69    34    36 ar  
    70    35    66 1   
    71    35    67 1   
    72    35    68 1   
    73    36    37 ar  
    74    36    69 1   
    75    37    70 1   
    76    42    71 1   
    77    44    72 1   
@<TRIPOS>SUBSTRUCTURE
     1 A1A         1 TEMP              0 ****  ****    0 ROOT
