@<TRIPOS>MOLECULE
A1A
   56    61     1     0     0
SMALL
abcg2


@<TRIPOS>ATOM
      1 C10         54.5940    11.4560    56.7590 ca         1 A1A      -0.180500
      2 C13         53.2120     9.6520    57.5510 ca         1 A1A      -0.180500
      3 C15         51.0990    14.1050    57.6800 c5         1 A1A       0.181500
      4 C17         48.8730    13.5800    58.2830 c5         1 A1A      -0.362700
      5 C20         46.6530    15.5000    60.5890 c5         1 A1A       0.223800
      6 C21         46.7060    14.6980    61.8960 c5         1 A1A      -0.048100
      7 C22         46.2390    13.3340    61.4840 ca         1 A1A      -0.125300
      8 C24         45.8780    12.0510    59.4590 ca         1 A1A      -0.136000
      9 C26         45.5750    11.0400    61.6410 ca         1 A1A      -0.127000
     10 C02         50.6900    10.2780    62.9570 ca         1 A1A       0.145100
     11 C03         49.5290    10.9000    62.5040 ca         1 A1A      -0.178000
     12 C04         49.5790    11.7510    61.4130 ca         1 A1A      -0.057500
     13 C05         50.7730    11.9990    60.7310 ca         1 A1A      -0.074800
     14 C06         50.8190    12.9050    59.5890 ce         1 A1A      -0.075400
     15 C07         51.5910    12.9170    58.4880 cf         1 A1A      -0.070400
     16 C08         52.5450    11.9460    57.9610 ca         1 A1A      -0.082800
     17 C09         53.6920    12.3650    57.2820 ca         1 A1A      -0.053500
     18 C11         54.3610    10.0880    56.8920 ca         1 A1A       0.148100
     19 C14         52.3210    10.5720    58.0730 ca         1 A1A      -0.053500
     20 C16         49.7630    13.6680    57.0270 c5         1 A1A      -0.069400
     21 C23         46.2200    13.2350    60.0940 ca         1 A1A       0.270000
     22 C25         45.5640    10.9530    60.2560 ca         1 A1A      -0.083000
     23 C27         45.9130    12.2400    62.2620 ca         1 A1A      -0.075000
     24 C30         49.8590    14.0690    59.3840 c5         1 A1A       0.215500
     25 C32         51.9300    11.3790    61.2100 ca         1 A1A      -0.057500
     26 C33         51.8950    10.5310    62.3020 ca         1 A1A      -0.178000
     27 N19         46.5880    14.4710    59.5270 nh         1 A1A      -0.774300
     28 O12         55.2650     9.2420    56.3670 oh         1 A1A      -0.530100
     29 O31         50.6470    14.9990    58.6810 os         1 A1A      -0.405000
     30 S18         47.4100    14.6050    58.0990 s6         1 A1A       1.221100
     31 H101        55.4810    11.8020    56.2440 ha         1 A1A       0.123000
     32 H131        53.0070     8.5920    57.6470 ha         1 A1A       0.123000
     33 H151        51.8050    14.5810    57.0010 h1         1 A1A       0.105700
     34 H171        48.5020    12.5720    58.4750 h1         1 A1A       0.112700
     35 H202        47.5110    16.1540    60.4600 h1         1 A1A       0.072200
     36 H201        45.7510    16.1110    60.5360 h1         1 A1A       0.072200
     37 H211        47.7240    14.6460    62.2930 hc         1 A1A       0.063700
     38 H212        46.0810    15.1520    62.6640 hc         1 A1A       0.063700
     39 H241        45.8460    11.9660    58.3820 ha         1 A1A       0.145000
     40 H261        45.3210    10.1750    62.2390 ha         1 A1A       0.120000
     41 H031        48.5870    10.7200    63.0070 ha         1 A1A       0.122500
     42 H041        48.6560    12.2140    61.0880 ha         1 A1A       0.120500
     43 H091        53.8950    13.4220    57.1690 ha         1 A1A       0.120000
     44 H141        51.4280    10.2140    58.5680 ha         1 A1A       0.120000
     45 H161        49.4300    14.4250    56.3150 hc         1 A1A       0.072200
     46 H162        49.8290    12.7200    56.4980 hc         1 A1A       0.072200
     47 H251        45.2970    10.0200    59.7780 ha         1 A1A       0.120000
     48 H271        45.9310    12.3130    63.3420 ha         1 A1A       0.119000
     49 H301        49.4160    14.4980    60.2830 h1         1 A1A       0.101700
     50 H321        52.8820    11.5710    60.7330 ha         1 A1A       0.120500
     51 H331        52.8120    10.0700    62.6510 ha         1 A1A       0.122500
     52 H011        51.4520     9.0800    64.2370 ho         1 A1A       0.467000
     53 H121        54.9970     8.3270    56.5080 ho         1 A1A       0.467000
     54 O01         50.5930     9.4600    64.0220 oh         1 A1A      -0.532100
     55 O28         46.6110    13.9900    57.0490 o          1 A1A      -0.520000
     56 O29         47.7770    16.0060    57.9760 o          1 A1A      -0.520000
@<TRIPOS>BOND
     1     1    17 ar  
     2     1    18 ar  
     3     1    31 1   
     4     2    18 ar  
     5     2    19 ar  
     6     2    32 1   
     7     3    15 1   
     8     3    20 1   
     9     3    29 1   
    10     3    33 1   
    11     4    20 1   
    12     4    24 1   
    13     4    30 1   
    14     4    34 1   
    15     5     6 1   
    16     5    27 1   
    17     5    35 1   
    18     5    36 1   
    19     6     7 1   
    20     6    37 1   
    21     6    38 1   
    22     7    21 ar  
    23     7    23 ar  
    24     8    21 ar  
    25     8    22 ar  
    26     8    39 1   
    27     9    22 ar  
    28     9    23 ar  
    29     9    40 1   
    30    10    11 ar  
    31    10    26 ar  
    32    10    54 1   
    33    11    12 ar  
    34    11    41 1   
    35    12    13 ar  
    36    12    42 1   
    37    13    14 1   
    38    13    25 ar  
    39    14    15 2   
    40    14    24 1   
    41    15    16 1   
    42    16    17 ar  
    43    16    19 ar  
    44    17    43 1   
    45    18    28 1   
    46    19    44 1   
    47    20    45 1   
    48    20    46 1   
    49    21    27 1   
    50    22    47 1   
    51    23    48 1   
    52    24    29 1   
    53    24    49 1   
    54    25    26 ar  
    55    25    50 1   
    56    26    51 1   
    57    27    30 1   
    58    28    53 1   
    59    30    55 2   
    60    30    56 2   
    61    52    54 1   
@<TRIPOS>SUBSTRUCTURE
     1 A1A         1 TEMP              0 ****  ****    0 ROOT
