@<TRIPOS>MOLECULE
A1A
   63    68     1     0     0
SMALL
No Charge or Current Charge


@<TRIPOS>ATOM
      1 N1         -27.8380   -36.7300    -3.4140 nh         1 A1A      -0.780300
      2 C4         -23.2240   -38.4620    -3.9620 ce         1 A1A      -0.072400
      3 C5         -21.9930   -38.9620    -4.6370 ca         1 A1A      -0.074800
      4 C6         -21.0910   -39.7950    -3.9460 ca         1 A1A      -0.056500
      5 C7         -19.9340   -40.2750    -4.5860 ca         1 A1A      -0.179000
      6 C8         -19.6780   -39.9300    -5.9220 ca         1 A1A       0.146100
      7 C10        -21.7340   -38.6300    -5.9810 ca         1 A1A      -0.056500
      8 C13        -21.1810   -37.4190    -1.7700 ca         1 A1A      -0.051500
      9 C15        -20.7450   -37.3850     0.6220 ca         1 A1A       0.149100
     10 C17        -22.9440   -38.0140    -0.2070 ca         1 A1A      -0.051500
     11 C20        -29.3120   -38.5900    -2.5230 c6         1 A1A      -0.084400
     12 C21        -28.7280   -39.4620    -3.6480 c6         1 A1A      -0.034100
     13 C22        -28.1150   -37.2350    -4.7250 ca         1 A1A       0.233000
     14 C24        -28.7540   -39.1320    -6.1570 ca         1 A1A      -0.139000
     15 C26        -28.8560   -38.1800    -9.7580 c3         1 A1A       0.147900
     16 C28        -28.0960   -36.4270    -5.8890 ca         1 A1A      -0.066000
     17 C1         -25.0450   -36.3610    -3.3770 c5         1 A1A      -0.347700
     18 C11        -23.4310   -38.0590    -2.6690 cf         1 A1A      -0.071400
     19 C12        -22.5080   -37.8370    -1.5370 ca         1 A1A      -0.083800
     20 C14        -20.3020   -37.1960    -0.6950 ca         1 A1A      -0.179500
     21 C16        -22.0630   -37.7910     0.8660 ca         1 A1A      -0.179500
     22 C18        -24.9380   -37.7130    -2.6210 c5         1 A1A       0.214500
     23 C19        -28.3720   -37.4100    -2.1960 c6         1 A1A       0.235800
     24 C2         -24.8020   -36.8160    -4.8690 c5         1 A1A      -0.073400
     25 C23        -28.5050   -38.5910    -4.8800 ca         1 A1A      -0.060300
     26 C25        -28.6630   -38.3320    -7.3020 ca         1 A1A       0.139100
     27 C27        -28.3500   -36.9670    -7.1630 ca         1 A1A      -0.189000
     28 C3         -24.5910   -38.3550    -4.6570 c5         1 A1A       0.180500
     29 C9         -20.5770   -39.1120    -6.6190 ca         1 A1A      -0.179000
     30 O1         -26.7830   -35.2220    -1.5760 o          1 A1A      -0.534000
     31 O2         -18.5600   -40.3920    -6.5500 oh         1 A1A      -0.530100
     32 O4         -25.4710   -38.6300    -3.5700 os         1 A1A      -0.432000
     33 O5         -28.9200   -38.9180    -8.5250 os         1 A1A      -0.340100
     34 S1         -26.6770   -35.4710    -3.0190 s6         1 A1A       1.218100
     35 H6         -21.2890   -40.0750    -2.9140 ha         1 A1A       0.119000
     36 H7         -19.2460   -40.9150    -4.0380 ha         1 A1A       0.122500
     37 H10        -22.4230   -37.9940    -6.5320 ha         1 A1A       0.119000
     38 H11        -20.8320   -37.2510    -2.7860 ha         1 A1A       0.119500
     39 H15        -23.9600   -38.3400     0.0020 ha         1 A1A       0.119500
     40 H18        -30.2900   -38.2000    -2.8350 hc         1 A1A       0.054200
     41 H19        -29.4860   -39.1920    -1.6200 hc         1 A1A       0.054200
     42 H21        -29.4180   -40.2860    -3.8720 hc         1 A1A       0.062200
     43 H20        -27.7820   -39.9180    -3.3280 hc         1 A1A       0.062200
     44 H22        -29.0370   -40.1760    -6.2610 ha         1 A1A       0.128000
     45 H23        -29.0860   -38.8360   -10.6070 h1         1 A1A       0.041700
     46 H24        -29.5820   -37.3570    -9.7580 h1         1 A1A       0.041700
     47 H25        -27.8520   -37.7640    -9.9120 h1         1 A1A       0.041700
     48 H27        -27.8860   -35.3680    -5.8300 ha         1 A1A       0.145000
     49 H1         -24.2800   -35.6560    -3.0380 h1         1 A1A       0.119700
     50 H12        -19.2840   -36.8740    -0.8960 ha         1 A1A       0.123500
     51 H14        -22.4060   -37.9370     1.8870 ha         1 A1A       0.123500
     52 H3         -25.4150   -37.7780    -1.6340 h1         1 A1A       0.116700
     53 H17        -27.5470   -37.8040    -1.5870 h1         1 A1A       0.056200
     54 H16        -28.9260   -36.6960    -1.5690 h1         1 A1A       0.056200
     55 H4         -23.9170   -36.3390    -5.3050 hc         1 A1A       0.069200
     56 H5         -25.6260   -36.6030    -5.5460 hc         1 A1A       0.069200
     57 H26        -28.3040   -36.3080    -8.0250 ha         1 A1A       0.123000
     58 H2         -24.7570   -39.0070    -5.5270 h1         1 A1A       0.103700
     59 H9         -20.3800   -38.8480    -7.6550 ha         1 A1A       0.122500
     60 H8         -18.0550   -40.9440    -5.9170 ho         1 A1A       0.467000
     61 H13        -19.0290   -36.8930     1.3140 ho         1 A1A       0.467000
     62 O3         -19.9000   -37.1710     1.6700 oh         1 A1A      -0.530100
     63 O6         -26.8680   -34.3580    -3.9530 o          1 A1A      -0.534000
@<TRIPOS>BOND
     1     1    13 1   
     2     1    23 1   
     3     1    34 1   
     4     2     3 1   
     5     2    18 2   
     6     2    28 1   
     7     3     4 ar  
     8     3     7 ar  
     9     4     5 ar  
    10     4    35 1   
    11     5     6 ar  
    12     5    36 1   
    13     6    29 ar  
    14     6    31 1   
    15     7    29 ar  
    16     7    37 1   
    17     8    19 ar  
    18     8    20 ar  
    19     8    38 1   
    20     9    20 ar  
    21     9    21 ar  
    22     9    62 1   
    23    10    19 ar  
    24    10    21 ar  
    25    10    39 1   
    26    11    12 1   
    27    11    23 1   
    28    11    40 1   
    29    11    41 1   
    30    12    25 1   
    31    12    42 1   
    32    12    43 1   
    33    13    16 ar  
    34    13    25 ar  
    35    14    25 ar  
    36    14    26 ar  
    37    14    44 1   
    38    15    33 1   
    39    15    45 1   
    40    15    46 1   
    41    15    47 1   
    42    16    27 ar  
    43    16    48 1   
    44    17    22 1   
    45    17    24 1   
    46    17    34 1   
    47    17    49 1   
    48    18    19 1   
    49    18    22 1   
    50    20    50 1   
    51    21    51 1   
    52    22    32 1   
    53    22    52 1   
    54    23    53 1   
    55    23    54 1   
    56    24    28 1   
    57    24    55 1   
    58    24    56 1   
    59    26    27 ar  
    60    26    33 1   
    61    27    57 1   
    62    28    32 1   
    63    28    58 1   
    64    29    59 1   
    65    30    34 2   
    66    31    60 1   
    67    34    63 2   
    68    61    62 1   
@<TRIPOS>SUBSTRUCTURE
     1 A1A         1 TEMP              0 ****  ****    0 ROOT
