@<TRIPOS>MOLECULE
A1A
   63    67     1     0     0
SMALL
abcg2


@<TRIPOS>ATOM
      1 N1         -33.0370   -41.9050    24.7560 nh         1 A1A      -0.783300
      2 C2         -30.7640   -44.8110    26.5100 c5         1 A1A      -0.076400
      3 C4         -32.1710   -46.8350    26.4720 ce         1 A1A      -0.062400
      4 C5         -32.0390   -47.8800    27.4760 ca         1 A1A      -0.076800
      5 C6         -33.0720   -48.7810    27.7550 ca         1 A1A      -0.055500
      6 C1         -32.0320   -44.0680    26.0400 c5         1 A1A      -0.336700
      7 C10        -30.8450   -48.0290    28.1850 ca         1 A1A      -0.055500
      8 C11        -33.2360   -46.1510    26.0190 cf         1 A1A      -0.085400
      9 C12        -34.6280   -46.0960    26.4620 ca         1 A1A      -0.074800
     10 C13        -34.9560   -46.0590    27.8180 ca         1 A1A      -0.056500
     11 C14        -36.2680   -45.9330    28.2390 ca         1 A1A      -0.179000
     12 C15        -37.2960   -45.8360    27.3020 ca         1 A1A       0.138100
     13 C16        -36.9880   -45.8740    25.9430 ca         1 A1A      -0.179000
     14 C17        -35.6700   -45.9960    25.5370 ca         1 A1A      -0.056500
     15 C18        -32.6480   -45.1170    25.0700 c5         1 A1A       0.222500
     16 C19        -33.0090   -41.0250    23.5720 c3         1 A1A       0.184800
     17 C20        -33.3360   -41.7660    22.2880 c3         1 A1A       0.148600
     18 C21        -34.0260   -41.6590    25.7560 ca         1 A1A       0.178000
     19 C22        -35.1370   -42.4840    25.8200 ca         1 A1A      -0.055500
     20 C23        -36.1310   -42.2830    26.7660 ca         1 A1A      -0.170000
     21 C24        -36.0180   -41.2300    27.6710 ca         1 A1A       0.154100
     22 C25        -38.0520   -41.7930    28.7510 c3         1 A1A       0.148900
     23 C26        -34.9090   -40.3810    27.5990 ca         1 A1A      -0.170000
     24 C27        -33.9240   -40.5950    26.6540 ca         1 A1A      -0.055500
     25 C3         -30.9770   -46.1720    25.8020 c5         1 A1A       0.179500
     26 C7         -32.9300   -49.7680    28.7110 ca         1 A1A      -0.179000
     27 C8         -31.7360   -49.8860    29.4260 ca         1 A1A       0.148100
     28 C9         -30.6910   -49.0100    29.1510 ca         1 A1A      -0.179000
     29 O1         -30.9810   -41.6970    26.3230 o          1 A1A      -0.533500
     30 O2         -31.6520   -50.8580    30.3520 oh         1 A1A      -0.530100
     31 O3         -38.5880   -45.6910    27.6480 oh         1 A1A      -0.533100
     32 O4         -31.5110   -45.7650    24.5560 os         1 A1A      -0.401000
     33 O5         -34.6270   -42.3270    22.2930 oh         1 A1A      -0.652000
     34 O6         -36.9170   -40.9580    28.6300 os         1 A1A      -0.337100
     35 O7         -30.7870   -42.7540    24.0720 o          1 A1A      -0.533500
     36 S1         -31.5770   -42.5170    25.2730 s6         1 A1A       1.197100
     37 H5         -30.7080   -44.8900    27.5930 hc         1 A1A       0.071700
     38 H4         -29.8390   -44.3490    26.1620 hc         1 A1A       0.071700
     39 H6         -34.0030   -48.7200    27.2060 ha         1 A1A       0.119000
     40 H1         -32.7070   -43.8100    26.8560 h1         1 A1A       0.117700
     41 H10        -30.0130   -47.3610    28.0000 ha         1 A1A       0.119000
     42 H11        -34.1690   -46.1110    28.5590 ha         1 A1A       0.121500
     43 H12        -36.4910   -45.8920    29.2990 ha         1 A1A       0.124500
     44 H14        -37.7810   -45.8000    25.2090 ha         1 A1A       0.124500
     45 H15        -35.4520   -46.0150    24.4760 ha         1 A1A       0.121500
     46 H3         -33.2940   -44.7240    24.2850 h1         1 A1A       0.103700
     47 H17        -32.0470   -40.5180    23.4670 h1         1 A1A       0.062700
     48 H16        -33.7490   -40.2440    23.7470 h1         1 A1A       0.062700
     49 H18        -32.5670   -42.5180    22.0870 h1         1 A1A       0.059700
     50 H19        -33.3000   -41.0440    21.4680 h1         1 A1A       0.059700
     51 H21        -35.2360   -43.3070    25.1260 ha         1 A1A       0.127000
     52 H22        -36.9790   -42.9540    26.7820 ha         1 A1A       0.131000
     53 H23        -38.6300   -41.4070    29.5880 h1         1 A1A       0.042367
     54 H24        -38.6740   -41.7690    27.8530 h1         1 A1A       0.042367
     55 H25        -37.7760   -42.8300    28.9610 h1         1 A1A       0.042367
     56 H26        -34.8250   -39.5560    28.2940 ha         1 A1A       0.131000
     57 H27        -33.0740   -39.9280    26.6090 ha         1 A1A       0.127000
     58 H2         -30.0790   -46.7750    25.6740 h1         1 A1A       0.106700
     59 H7         -33.7410   -50.4580    28.9050 ha         1 A1A       0.123500
     60 H9         -29.7530   -49.0870    29.6900 ha         1 A1A       0.123500
     61 H8         -30.7880   -50.8470    30.7790 ho         1 A1A       0.467000
     62 H13        -38.6840   -45.6760    28.6080 ho         1 A1A       0.466000
     63 H20        -34.6100   -43.1130    22.8460 ho         1 A1A       0.438000
@<TRIPOS>BOND
     1     1    16 1   
     2     1    18 1   
     3     1    36 1   
     4     2     6 1   
     5     2    25 1   
     6     2    37 1   
     7     2    38 1   
     8     3     4 1   
     9     3     8 2   
    10     3    25 1   
    11     4     5 ar  
    12     4     7 ar  
    13     5    26 ar  
    14     5    39 1   
    15     6    15 1   
    16     6    36 1   
    17     6    40 1   
    18     7    28 ar  
    19     7    41 1   
    20     8     9 1   
    21     8    15 1   
    22     9    10 ar  
    23     9    14 ar  
    24    10    11 ar  
    25    10    42 1   
    26    11    12 ar  
    27    11    43 1   
    28    12    13 ar  
    29    12    31 1   
    30    13    14 ar  
    31    13    44 1   
    32    14    45 1   
    33    15    32 1   
    34    15    46 1   
    35    16    17 1   
    36    16    47 1   
    37    16    48 1   
    38    17    33 1   
    39    17    49 1   
    40    17    50 1   
    41    18    19 ar  
    42    18    24 ar  
    43    19    20 ar  
    44    19    51 1   
    45    20    21 ar  
    46    20    52 1   
    47    21    23 ar  
    48    21    34 1   
    49    22    34 1   
    50    22    53 1   
    51    22    54 1   
    52    22    55 1   
    53    23    24 ar  
    54    23    56 1   
    55    24    57 1   
    56    25    32 1   
    57    25    58 1   
    58    26    27 ar  
    59    26    59 1   
    60    27    28 ar  
    61    27    30 1   
    62    28    60 1   
    63    29    36 2   
    64    30    61 1   
    65    31    62 1   
    66    33    63 1   
    67    35    36 2   
@<TRIPOS>SUBSTRUCTURE
     1 A1A         1 TEMP              0 ****  ****    0 ROOT
