@<TRIPOS>MOLECULE
A1A
   48    50     1     0     0
SMALL
No Charge or Current Charge


@<TRIPOS>ATOM
      1 C10        131.8220   133.2370   136.1000 cx         1 A1A      -0.122900
      2 C13        133.0020   129.9620   134.4780 ca         1 A1A      -0.107500
      3 C15        133.7490   128.7980   134.7230 ca         1 A1A      -0.090500
      4 C17        135.4820   127.4910   136.0540 c3         1 A1A      -0.109100
      5 C20        135.1530   124.4450   139.5070 ca         1 A1A       0.314300
      6 C21        135.1420   126.6250   140.8260 c3         1 A1A      -0.104100
      7 C22        136.4950   124.0660   139.2840 ca         1 A1A      -0.112000
      8 C24        135.8300   121.7550   139.5300 ca         1 A1A       0.078100
      9 C26        137.3910   119.8430   139.3430 c3         1 A1A       0.087600
     10 C08        132.3480   132.3430   134.9990 cx         1 A1A      -0.086400
     11 C09        132.9050   133.7390   135.1760 cx         1 A1A      -0.122900
     12 C11        133.1660   131.1050   135.2860 ca         1 A1A      -0.035300
     13 C12        134.0940   131.0590   136.3470 ca         1 A1A      -0.107500
     14 C14        134.8420   129.8940   136.5930 ca         1 A1A      -0.090500
     15 C16        134.6750   128.7570   135.7820 ca         1 A1A      -0.076300
     16 C18        134.7700   126.6050   137.0820 c          1 A1A       0.595100
     17 C19        134.7400   125.9250   139.5130 c3         1 A1A       0.071400
     18 C23        136.8470   122.7040   139.2920 ca         1 A1A      -0.156000
     19 C25        134.5140   122.2240   139.7490 ca         1 A1A       0.332900
     20 C27        137.3230   118.3010   139.4380 c3         1 A1A       0.310000
     21 F01        136.4860   117.7910   138.5050 f          1 A1A      -0.106333
     22 F02        136.8850   117.9050   140.6560 f          1 A1A      -0.106333
     23 F03        138.5460   117.7580   139.2400 f          1 A1A      -0.106333
     24 N06        135.2740   126.6730   138.3620 ns         1 A1A      -0.518900
     25 N07        134.1730   123.5380   139.7420 nb         1 A1A      -0.635000
     26 O04        133.8180   125.8940   136.7930 o          1 A1A      -0.575100
     27 H1         130.8230   133.6500   135.9810 hc         1 A1A       0.072950
     28 H2         132.0950   133.0080   137.1270 hc         1 A1A       0.072950
     29 H3         132.2910   129.9730   133.6550 ha         1 A1A       0.111500
     30 H4         133.6040   127.9250   134.0900 ha         1 A1A       0.110000
     31 H5         135.6010   126.9240   135.1240 hc         1 A1A       0.060200
     32 H6         136.4710   127.7750   136.4320 hc         1 A1A       0.060200
     33 H7         134.7010   126.1060   141.6860 hc         1 A1A       0.046700
     34 H8         136.2310   126.6310   140.9500 hc         1 A1A       0.046700
     35 H9         134.7860   127.6620   140.8360 hc         1 A1A       0.046700
     36 H10        137.2530   124.8240   139.1070 ha         1 A1A       0.121000
     37 H11        138.0940   120.2140   140.0990 h1         1 A1A       0.070200
     38 H12        137.7710   120.1210   138.3510 h1         1 A1A       0.070200
     39 H13        131.6850   132.2060   134.1470 hc         1 A1A       0.080700
     40 H14        133.9090   133.8470   135.5790 hc         1 A1A       0.072950
     41 H15        132.6330   134.4880   134.4360 hc         1 A1A       0.072950
     42 H16        134.2430   131.9230   136.9890 ha         1 A1A       0.111500
     43 H17        135.5510   129.8780   137.4170 ha         1 A1A       0.110000
     44 H18        133.6430   125.9650   139.4480 h1         1 A1A       0.092700
     45 H19        137.8800   122.4150   139.1190 ha         1 A1A       0.120000
     46 H20        133.7050   121.5190   139.9370 h4         1 A1A       0.038100
     47 H21        136.0570   127.3000   138.5110 hn         1 A1A       0.313500
     48 O05        136.0730   120.3930   139.5580 os         1 A1A      -0.321100
@<TRIPOS>BOND
     1     1    10 1   
     2     1    11 1   
     3     1    27 1   
     4     1    28 1   
     5     2     3 ar  
     6     2    12 ar  
     7     2    29 1   
     8     3    15 ar  
     9     3    30 1   
    10     4    15 1   
    11     4    16 1   
    12     4    31 1   
    13     4    32 1   
    14     5     7 ar  
    15     5    17 1   
    16     5    25 ar  
    17     6    17 1   
    18     6    33 1   
    19     6    34 1   
    20     6    35 1   
    21     7    18 ar  
    22     7    36 1   
    23     8    18 ar  
    24     8    19 ar  
    25     8    48 1   
    26     9    20 1   
    27     9    37 1   
    28     9    38 1   
    29     9    48 1   
    30    10    11 1   
    31    10    12 1   
    32    10    39 1   
    33    11    40 1   
    34    11    41 1   
    35    12    13 ar  
    36    13    14 ar  
    37    13    42 1   
    38    14    15 ar  
    39    14    43 1   
    40    16    24 1   
    41    16    26 2   
    42    17    24 1   
    43    17    44 1   
    44    18    45 1   
    45    19    25 ar  
    46    19    46 1   
    47    20    21 1   
    48    20    22 1   
    49    20    23 1   
    50    24    47 1   
@<TRIPOS>SUBSTRUCTURE
     1 A1A         1 TEMP              0 ****  ****    0 ROOT
