@<TRIPOS>MOLECULE
A1A
  144   144     1     0     0
SMALL
No Charge or Current Charge


@<TRIPOS>ATOM
      1 C           39.9130    32.9630   -21.2450 c3         1 A1A      -0.072400
      2 C1          40.1120    34.1000   -22.2770 c3         1 A1A      -0.073400
      3 C2          40.0920    35.5230   -21.6720 c3         1 A1A      -0.077400
      4 C3          40.1980    36.6350   -22.7450 c3         1 A1A      -0.074400
      5 C4          40.1120    38.0780   -22.1910 c3         1 A1A      -0.072400
      6 C5          38.7590    38.4150   -21.5200 c3         1 A1A      -0.079400
      7 C6          38.6020    39.9050   -21.1470 c3         1 A1A      -0.074400
      8 C7          37.2650    40.2230   -20.4360 c3         1 A1A      -0.074400
      9 C8          37.2080    39.7490   -18.9620 c3         1 A1A      -0.075400
     10 C9          35.8610    40.0380   -18.2590 c3         1 A1A      -0.073400
     11 C10         34.7220    39.0680   -18.6510 c3         1 A1A      -0.076400
     12 C11         33.3800    39.4250   -17.9750 c3         1 A1A      -0.073400
     13 C12         32.2730    38.3750   -18.2140 c3         1 A1A      -0.076400
     14 C13         30.9100    38.8010   -17.6250 c3         1 A1A      -0.072400
     15 C14         29.8250    37.7110   -17.7570 c3         1 A1A      -0.079400
     16 C15         28.4450    38.1690   -17.2290 c3         1 A1A      -0.063400
     17 C16         27.3530    37.0730   -17.2920 c3         1 A1A      -0.155400
     18 C17         27.6280    35.9260   -16.2980 c          1 A1A       0.605100
     19 O           27.4310    36.0640   -15.1020 o          1 A1A      -0.599100
     20 N           28.0860    34.7110   -16.7640 ns         1 A1A      -0.516900
     21 C18         28.3800    34.3250   -18.1700 c3         1 A1A      -0.014300
     22 C19         27.1120    33.8780   -18.9310 c3         1 A1A       0.159600
     23 O1          27.4690    33.6860   -20.3080 os         1 A1A      -0.445000
     24 C20         26.4150    33.2530   -21.1870 c6         1 A1A       0.405300
     25 C21         26.9010    33.2200   -22.6780 c6         1 A1A       0.145300
     26 O27         27.3120    34.5190   -23.1670 oh         1 A1A      -0.689000
     27 C22         25.7680    32.6620   -23.5880 c6         1 A1A       0.139300
     28 O26         24.7010    33.6200   -23.7000 oh         1 A1A      -0.644000
     29 O2          25.9990    31.9330   -20.7860 os         1 A1A      -0.476000
     30 C24         24.8500    31.4420   -21.5210 c6         1 A1A       0.159300
     31 C25         24.4070    30.0790   -20.8920 c3         1 A1A       0.169600
     32 O3          24.1190    30.1670   -19.4820 oh         1 A1A      -0.700000
     33 C23         25.2080    31.3130   -23.0380 c6         1 A1A       0.100300
     34 O4          24.0620    30.9070   -23.8180 oh         1 A1A      -0.724000
     35 C54         29.4580    33.2120   -18.2040 c          1 A1A       0.582100
     36 O28         29.4970    32.3230   -17.3600 o          1 A1A      -0.506100
     37 C55         30.5230    33.3070   -19.3070 c3         1 A1A      -0.170400
     38 C56         31.7830    34.0580   -18.8150 c3         1 A1A      -0.073400
     39 C57         32.8790    34.1520   -19.8980 c3         1 A1A      -0.074400
     40 C58         34.1530    34.8820   -19.4150 c3         1 A1A      -0.077400
     41 C59         35.3060    34.8870   -20.4460 c3         1 A1A      -0.077400
     42 C60         35.0390    35.7390   -21.7080 c3         1 A1A      -0.076400
     43 C61         36.1950    35.6580   -22.7310 c3         1 A1A      -0.076400
     44 C62         36.0400    36.5970   -23.9500 c3         1 A1A      -0.072400
     45 C63         34.8520    36.2510   -24.8770 c3         1 A1A      -0.075400
     46 C64         34.7770    37.1600   -26.1230 c3         1 A1A      -0.076400
     47 C65         33.5880    36.8200   -27.0470 c3         1 A1A      -0.075400
     48 C66         33.5120    37.7350   -28.2920 c3         1 A1A      -0.072400
     49 C67         32.3840    37.3710   -29.2880 c3         1 A1A      -0.073400
     50 C68         30.9530    37.5640   -28.7340 c3         1 A1A      -0.076400
     51 C69         29.8600    37.2770   -29.7810 c3         1 A1A      -0.090100
     52 C70         36.8750    31.6810   -19.0480 c3         1 A1A      -0.076400
     53 C71         38.2930    31.7230   -19.6620 c3         1 A1A      -0.076400
     54 C72         38.4960    32.9130   -20.6240 c3         1 A1A      -0.076400
     55 C73         36.6730    30.5080   -18.0710 c3         1 A1A      -0.089100
     56 HC3         40.1120    32.0070   -21.7440 hc         1 A1A       0.037200
     57 HC2         40.6600    33.0630   -20.4470 hc         1 A1A       0.037200
     58 H11         41.0720    33.9480   -22.7850 hc         1 A1A       0.036200
     59 H12         39.3350    34.0200   -23.0470 hc         1 A1A       0.036200
     60 H22         39.1670    35.6560   -21.1040 hc         1 A1A       0.039200
     61 H21         40.9190    35.6270   -20.9600 hc         1 A1A       0.039200
     62 H31         41.1490    36.5210   -23.2790 hc         1 A1A       0.036200
     63 H32         39.4040    36.4950   -23.4900 hc         1 A1A       0.036200
     64 H41         40.9250    38.2420   -21.4730 hc         1 A1A       0.036700
     65 H42         40.2790    38.7750   -23.0210 hc         1 A1A       0.036700
     66 H52         37.9460    38.1420   -22.2010 hc         1 A1A       0.038200
     67 H51         38.6440    37.8040   -20.6190 hc         1 A1A       0.038200
     68 H61         39.4390    40.2200   -20.5120 hc         1 A1A       0.037200
     69 H62         38.6600    40.5030   -22.0650 hc         1 A1A       0.037200
     70 H71         37.1090    41.3090   -20.4580 hc         1 A1A       0.038200
     71 H72         36.4400    39.7790   -21.0070 hc         1 A1A       0.038200
     72 H82         37.4180    38.6760   -18.8970 hc         1 A1A       0.037700
     73 H81         38.0050    40.2570   -18.4050 hc         1 A1A       0.037700
     74 H91         36.0160    39.9710   -17.1750 hc         1 A1A       0.037700
     75 H92         35.5570    41.0720   -18.4670 hc         1 A1A       0.037700
     76 H102        34.5840    39.0700   -19.7380 hc         1 A1A       0.037200
     77 H101        35.0120    38.0480   -18.3670 hc         1 A1A       0.037200
     78 H112        33.5360    39.5330   -16.8940 hc         1 A1A       0.037700
     79 H111        33.0430    40.4000   -18.3480 hc         1 A1A       0.037700
     80 H121        32.1620    38.1980   -19.2910 hc         1 A1A       0.036700
     81 H122        32.5800    37.4250   -17.7600 hc         1 A1A       0.036700
     82 H132        31.0370    39.0510   -16.5640 hc         1 A1A       0.039200
     83 H131        30.5710    39.7140   -18.1300 hc         1 A1A       0.039200
     84 H141        29.7300    37.4220   -18.8110 hc         1 A1A       0.039200
     85 H142        30.1520    36.8210   -17.2050 hc         1 A1A       0.039200
     86 H152        28.5470    38.5180   -16.1940 hc         1 A1A       0.051700
     87 H151        28.1110    39.0320   -17.8190 hc         1 A1A       0.051700
     88 H162        26.4020    37.5400   -17.0100 hc         1 A1A       0.059700
     89 H161        27.2790    36.7200   -18.3250 hc         1 A1A       0.059700
     90 HN1         28.2390    34.0120   -16.0440 hn         1 A1A       0.322500
     91 H181        28.8120    35.1880   -18.6900 h1         1 A1A       0.079700
     92 H192        26.3320    34.6450   -18.8390 h1         1 A1A       0.062200
     93 H191        26.7290    32.9490   -18.4870 h1         1 A1A       0.062200
     94 H201        25.5660    33.9490   -21.1000 h2         1 A1A       0.068700
     95 H211        27.7530    32.5260   -22.7270 h1         1 A1A       0.050700
     96 H271        26.4880    34.9120   -23.5420 ho         1 A1A       0.506000
     97 H221        26.1930    32.4710   -24.5850 h1         1 A1A       0.038700
     98 H261        23.9170    33.0840   -23.9650 ho         1 A1A       0.461000
     99 H241        24.0190    32.1530   -21.4000 h1         1 A1A       0.080700
    100 H251        25.2060    29.3460   -21.0650 h1         1 A1A       0.022200
    101 H252        23.5170    29.7230   -21.4280 h1         1 A1A       0.022200
    102 H33         23.9200    29.2530   -19.1720 ho         1 A1A       0.502000
    103 H231        26.0030    30.5560   -23.1250 h1         1 A1A       0.046700
    104 H43         24.3960    30.3870   -24.5890 ho         1 A1A       0.514000
    105 H551        30.8080    32.2950   -19.6160 hc         1 A1A       0.072700
    106 H552        30.1200    33.8670   -20.1580 hc         1 A1A       0.072700
    107 H561        31.5040    35.0700   -18.4950 hc         1 A1A       0.044700
    108 H562        32.1900    33.5450   -17.9340 hc         1 A1A       0.044700
    109 H571        33.1480    33.1400   -20.2240 hc         1 A1A       0.039200
    110 H572        32.4650    34.6710   -20.7710 hc         1 A1A       0.039200
    111 H581        33.9050    35.9150   -19.1470 hc         1 A1A       0.040700
    112 H582        34.5130    34.3960   -18.5000 hc         1 A1A       0.040700
    113 H591        36.2100    35.2650   -19.9530 hc         1 A1A       0.039200
    114 H592        35.5190    33.8550   -20.7460 hc         1 A1A       0.039200
    115 H601        34.1150    35.4000   -22.1890 hc         1 A1A       0.038200
    116 H602        34.8870    36.7840   -21.4100 hc         1 A1A       0.038200
    117 H612        37.1300    35.9060   -22.2200 hc         1 A1A       0.039200
    118 H611        36.3000    34.6240   -23.0820 hc         1 A1A       0.039200
    119 H622        35.9360    37.6310   -23.5980 hc         1 A1A       0.037700
    120 H621        36.9670    36.5580   -24.5340 hc         1 A1A       0.037700
    121 H631        34.9380    35.2050   -25.1970 hc         1 A1A       0.036700
    122 H632        33.9120    36.3410   -24.3190 hc         1 A1A       0.036700
    123 H642        34.6960    38.2060   -25.8010 hc         1 A1A       0.036700
    124 H641        35.7120    37.0710   -26.6900 hc         1 A1A       0.036700
    125 H651        33.6710    35.7750   -27.3720 hc         1 A1A       0.036700
    126 H652        32.6590    36.9060   -26.4710 hc         1 A1A       0.036700
    127 H662        33.3890    38.7770   -27.9720 hc         1 A1A       0.037200
    128 H661        34.4700    37.6840   -28.8250 hc         1 A1A       0.037200
    129 H671        32.5020    37.9950   -30.1830 hc         1 A1A       0.037200
    130 H672        32.5120    36.3310   -29.6130 hc         1 A1A       0.037200
    131 H682        30.7940    36.9020   -27.8750 hc         1 A1A       0.036700
    132 H681        30.8380    38.5940   -28.3720 hc         1 A1A       0.036700
    133 H693        28.8650    37.4240   -29.3450 hc         1 A1A       0.030367
    134 H691        29.9600    37.9500   -30.6420 hc         1 A1A       0.030367
    135 H692        29.9280    36.2430   -30.1400 hc         1 A1A       0.030367
    136 H702        36.6790    32.6220   -18.5200 hc         1 A1A       0.036200
    137 H701        36.1330    31.6030   -19.8530 hc         1 A1A       0.036200
    138 H711        39.0330    31.7830   -18.8540 hc         1 A1A       0.036700
    139 H712        38.4800    30.7860   -20.2000 hc         1 A1A       0.036700
    140 H721        38.3020    33.8400   -20.0740 hc         1 A1A       0.037200
    141 H722        37.7540    32.8540   -21.4300 hc         1 A1A       0.037200
    142 H733        35.6550    30.5200   -17.6650 hc         1 A1A       0.032033
    143 H731        36.8280    29.5480   -18.5790 hc         1 A1A       0.032033
    144 H732        37.3770    30.5750   -17.2330 hc         1 A1A       0.032033
@<TRIPOS>BOND
     1     1     2 1   
     2     1    54 1   
     3     1    56 1   
     4     1    57 1   
     5     2     3 1   
     6     2    58 1   
     7     2    59 1   
     8     3     4 1   
     9     3    60 1   
    10     3    61 1   
    11     4     5 1   
    12     4    62 1   
    13     4    63 1   
    14     5     6 1   
    15     5    64 1   
    16     5    65 1   
    17     6     7 1   
    18     6    66 1   
    19     6    67 1   
    20     7     8 1   
    21     7    68 1   
    22     7    69 1   
    23     8     9 1   
    24     8    70 1   
    25     8    71 1   
    26     9    10 1   
    27     9    72 1   
    28     9    73 1   
    29    10    11 1   
    30    10    74 1   
    31    10    75 1   
    32    11    12 1   
    33    11    76 1   
    34    11    77 1   
    35    12    13 1   
    36    12    78 1   
    37    12    79 1   
    38    13    14 1   
    39    13    80 1   
    40    13    81 1   
    41    14    15 1   
    42    14    82 1   
    43    14    83 1   
    44    15    16 1   
    45    15    84 1   
    46    15    85 1   
    47    16    17 1   
    48    16    86 1   
    49    16    87 1   
    50    17    18 1   
    51    17    88 1   
    52    17    89 1   
    53    18    19 2   
    54    18    20 1   
    55    20    21 1   
    56    20    90 1   
    57    21    22 1   
    58    21    35 1   
    59    21    91 1   
    60    22    23 1   
    61    22    92 1   
    62    22    93 1   
    63    23    24 1   
    64    24    25 1   
    65    24    29 1   
    66    24    94 1   
    67    25    26 1   
    68    25    27 1   
    69    25    95 1   
    70    26    96 1   
    71    27    28 1   
    72    27    33 1   
    73    27    97 1   
    74    28    98 1   
    75    29    30 1   
    76    30    31 1   
    77    30    33 1   
    78    30    99 1   
    79    31    32 1   
    80    31   100 1   
    81    31   101 1   
    82    32   102 1   
    83    33    34 1   
    84    33   103 1   
    85    34   104 1   
    86    35    36 2   
    87    35    37 1   
    88    37    38 1   
    89    37   105 1   
    90    37   106 1   
    91    38    39 1   
    92    38   107 1   
    93    38   108 1   
    94    39    40 1   
    95    39   109 1   
    96    39   110 1   
    97    40    41 1   
    98    40   111 1   
    99    40   112 1   
   100    41    42 1   
   101    41   113 1   
   102    41   114 1   
   103    42    43 1   
   104    42   115 1   
   105    42   116 1   
   106    43    44 1   
   107    43   117 1   
   108    43   118 1   
   109    44    45 1   
   110    44   119 1   
   111    44   120 1   
   112    45    46 1   
   113    45   121 1   
   114    45   122 1   
   115    46    47 1   
   116    46   123 1   
   117    46   124 1   
   118    47    48 1   
   119    47   125 1   
   120    47   126 1   
   121    48    49 1   
   122    48   127 1   
   123    48   128 1   
   124    49    50 1   
   125    49   129 1   
   126    49   130 1   
   127    50    51 1   
   128    50   131 1   
   129    50   132 1   
   130    51   133 1   
   131    51   134 1   
   132    51   135 1   
   133    52    53 1   
   134    52    55 1   
   135    52   136 1   
   136    52   137 1   
   137    53    54 1   
   138    53   138 1   
   139    53   139 1   
   140    54   140 1   
   141    54   141 1   
   142    55   142 1   
   143    55   143 1   
   144    55   144 1   
@<TRIPOS>SUBSTRUCTURE
     1 A1A         1 TEMP              0 ****  ****    0 ROOT
