@<TRIPOS>MOLECULE
A1A
   59    64     1     0     0
SMALL
abcg2


@<TRIPOS>ATOM
      1 N1          24.0800    36.7760     9.5440 nh         1 A1A      -0.769300
      2 C4          28.5470    39.2800     9.6570 ce         1 A1A      -0.074400
      3 C5          29.8690    39.6900    10.1110 ca         1 A1A      -0.074800
      4 C6          30.5830    40.7060     9.4670 ca         1 A1A      -0.056500
      5 C7          31.8290    41.1040     9.9100 ca         1 A1A      -0.178000
      6 C8          32.4070    40.4880    11.0210 ca         1 A1A       0.146100
      7 C10         30.4520    39.1010    11.2340 ca         1 A1A      -0.056500
      8 C13         29.8870    38.9120     6.8110 ca         1 A1A      -0.051000
      9 C15         29.6730    39.5930     4.5140 ca         1 A1A       0.150100
     10 C17         27.8410    39.8840     6.0470 ca         1 A1A      -0.051000
     11 C20         23.9950    37.5110    11.8870 c6         1 A1A      -0.095400
     12 C21         23.2160    38.7550    11.4850 c6         1 A1A      -0.023100
     13 C22         23.4540    37.9600     9.0660 ca         1 A1A       0.280000
     14 C24         22.4110    40.0720     9.5320 ca         1 A1A      -0.100000
     15 C26         22.5420    39.3040     7.2760 ca         1 A1A      -0.100000
     16 C1          26.8480    37.1340     8.9590 c5         1 A1A      -0.348700
     17 C11         28.0090    39.1960     8.4280 cf         1 A1A      -0.066400
     18 C12         28.5870    39.3430     7.0950 ca         1 A1A      -0.083800
     19 C14         30.4270    39.0330     5.5450 ca         1 A1A      -0.179500
     20 C16         28.3710    40.0150     4.7740 ca         1 A1A      -0.179500
     21 C18         26.6110    38.6440     8.6610 c5         1 A1A       0.214500
     22 C19         23.7250    36.3850    10.9120 c6         1 A1A       0.216800
     23 C2          27.4260    37.2000    10.3810 c5         1 A1A      -0.072400
     24 C23         23.0510    38.9240     9.9970 ca         1 A1A      -0.080300
     25 C25         22.1680    40.2820     8.1870 ca         1 A1A      -0.116000
     26 C27         23.1620    38.1460     7.7110 ca         1 A1A      -0.136000
     27 C3          27.4730    38.7340    10.5850 c5         1 A1A       0.176500
     28 C9          31.7070    39.4830    11.6820 ca         1 A1A      -0.178000
     29 O1          25.1260    36.0070     7.3660 o          1 A1A      -0.532500
     30 O2          33.6260    40.9070    11.4070 oh         1 A1A      -0.530100
     31 O4          26.2810    39.1430     9.9350 os         1 A1A      -0.420000
     32 S1          25.3930    36.0840     8.7950 s6         1 A1A       1.214100
     33 H6          30.1490    41.2080     8.6120 ha         1 A1A       0.118000
     34 H7          32.3590    41.8990     9.4010 ha         1 A1A       0.123000
     35 H10         29.9330    38.3160    11.7720 ha         1 A1A       0.118000
     36 H11         30.4830    38.4630     7.5940 ha         1 A1A       0.119500
     37 H15         26.8270    40.2240     6.2230 ha         1 A1A       0.119500
     38 H19         25.0640    37.7180    11.9160 hc         1 A1A       0.050700
     39 H18         23.7080    37.1960    12.8910 hc         1 A1A       0.050700
     40 H20         23.6880    39.6470    11.9010 hc         1 A1A       0.053200
     41 H21         22.2160    38.7110    11.9240 hc         1 A1A       0.053200
     42 H22         22.1020    40.8170    10.2560 ha         1 A1A       0.111000
     43 H24         22.3370    39.4300     6.2200 ha         1 A1A       0.117000
     44 H1          27.5330    36.6800     8.2390 h1         1 A1A       0.121700
     45 H12         31.4340    38.6870     5.3470 ha         1 A1A       0.123500
     46 H14         27.7690    40.4480     3.9830 ha         1 A1A       0.123500
     47 H3          25.8550    38.8780     7.9140 h1         1 A1A       0.114700
     48 H17         22.6610    36.1300    10.9050 h1         1 A1A       0.072700
     49 H16         24.2650    35.4830    11.1840 h1         1 A1A       0.072700
     50 H4          26.7860    36.7300    11.1280 hc         1 A1A       0.065200
     51 H5          28.4030    36.7250    10.4490 hc         1 A1A       0.065200
     52 H23         21.6780    41.1880     7.8550 ha         1 A1A       0.116000
     53 H25         23.4100    37.3850     6.9900 ha         1 A1A       0.151000
     54 H2          27.5000    39.0670    11.6210 h1         1 A1A       0.101700
     55 H9          32.1370    38.9980    12.5510 ha         1 A1A       0.123000
     56 H8          33.9220    40.4210    12.1850 ho         1 A1A       0.466000
     57 H13         29.6360    40.0920     2.6700 ho         1 A1A       0.467000
     58 O3          30.2460    39.6930     3.3020 oh         1 A1A      -0.530100
     59 O5          25.6690    34.8480     9.5110 o          1 A1A      -0.532500
@<TRIPOS>BOND
     1     1    13 1   
     2     1    22 1   
     3     1    32 1   
     4     2     3 1   
     5     2    17 2   
     6     2    27 1   
     7     3     4 ar  
     8     3     7 ar  
     9     4     5 ar  
    10     4    33 1   
    11     5     6 ar  
    12     5    34 1   
    13     6    28 ar  
    14     6    30 1   
    15     7    28 ar  
    16     7    35 1   
    17     8    18 ar  
    18     8    19 ar  
    19     8    36 1   
    20     9    19 ar  
    21     9    20 ar  
    22     9    58 1   
    23    10    18 ar  
    24    10    20 ar  
    25    10    37 1   
    26    11    12 1   
    27    11    22 1   
    28    11    38 1   
    29    11    39 1   
    30    12    24 1   
    31    12    40 1   
    32    12    41 1   
    33    13    24 ar  
    34    13    26 ar  
    35    14    24 ar  
    36    14    25 ar  
    37    14    42 1   
    38    15    25 ar  
    39    15    26 ar  
    40    15    43 1   
    41    16    21 1   
    42    16    23 1   
    43    16    32 1   
    44    16    44 1   
    45    17    18 1   
    46    17    21 1   
    47    19    45 1   
    48    20    46 1   
    49    21    31 1   
    50    21    47 1   
    51    22    48 1   
    52    22    49 1   
    53    23    27 1   
    54    23    50 1   
    55    23    51 1   
    56    25    52 1   
    57    26    53 1   
    58    27    31 1   
    59    27    54 1   
    60    28    55 1   
    61    29    32 2   
    62    30    56 1   
    63    32    59 2   
    64    57    58 1   
@<TRIPOS>SUBSTRUCTURE
     1 A1A         1 TEMP              0 ****  ****    0 ROOT
