@<TRIPOS>MOLECULE
A1A
   66    71     1     0     0
SMALL
abcg2


@<TRIPOS>ATOM
      1 N1          28.0940    19.8440    32.3620 nh         1 A1A      -0.798300
      2 C4          24.0520    17.2470    34.5360 ce         1 A1A      -0.062400
      3 C5          22.6620    16.8910    34.7790 ca         1 A1A      -0.075800
      4 C6          22.0450    15.8230    34.1170 ca         1 A1A      -0.055000
      5 C7          20.7270    15.4880    34.3580 ca         1 A1A      -0.179000
      6 C8          19.9740    16.2180    35.2790 ca         1 A1A       0.147100
      7 C10         21.9000    17.5940    35.7150 ca         1 A1A      -0.055000
      8 C13         23.4260    17.1700    31.4100 ca         1 A1A      -0.056500
      9 C15         24.0820    16.0430    29.3900 ca         1 A1A       0.138100
     10 C17         25.4300    15.8660    31.3740 ca         1 A1A      -0.056500
     11 C20         30.0010    18.4210    31.7590 cx         1 A1A      -0.134700
     12 C21         31.4010    18.3240    31.2350 cx         1 A1A      -0.126900
     13 C22         30.2430    18.3360    30.2840 cx         1 A1A      -0.126900
     14 C24         27.4320    21.3380    30.5220 ca         1 A1A      -0.056000
     15 C26         26.3220    20.4360    28.5800 ca         1 A1A       0.153100
     16 C28         26.3700    19.1650    29.1490 ca         1 A1A      -0.173000
     17 C1          25.8250    19.2740    33.7080 c5         1 A1A      -0.337700
     18 C11         24.8380    17.0900    33.4570 cf         1 A1A      -0.086400
     19 C12         24.5480    16.6810    32.0840 ca         1 A1A      -0.073800
     20 C14         23.1900    16.8600    30.0840 ca         1 A1A      -0.179500
     21 C16         25.2040    15.5420    30.0460 ca         1 A1A      -0.179500
     22 C18         26.1500    17.7590    33.8370 c5         1 A1A       0.219500
     23 C19         29.5560    19.7120    32.3840 c3         1 A1A       0.261800
     24 C2          24.9730    19.4980    34.9750 c5         1 A1A      -0.073400
     25 C23         27.4740    20.0710    31.0990 ca         1 A1A       0.187000
     26 C25         26.8610    21.5210    29.2780 ca         1 A1A      -0.173000
     27 C27         25.2410    19.6390    26.6280 c3         1 A1A       0.145900
     28 C29         26.9470    18.9970    30.4000 ca         1 A1A      -0.056000
     29 C3          24.9040    18.0450    35.5130 c5         1 A1A       0.179500
     30 C9          20.5750    17.2730    35.9610 ca         1 A1A      -0.179000
     31 O1          26.7880    21.7020    33.5880 o          1 A1A      -0.533000
     32 O2          18.6930    15.8560    35.4710 oh         1 A1A      -0.530100
     33 O4          26.2090    17.5760    35.2300 os         1 A1A      -0.402000
     34 S1          27.2730    20.3320    33.7160 s6         1 A1A       1.216100
     35 H6          22.6090    15.2290    33.4100 ha         1 A1A       0.118500
     36 H7          20.2750    14.6530    33.8370 ha         1 A1A       0.123000
     37 H10         22.3330    18.4210    36.2640 ha         1 A1A       0.118500
     38 H11         22.7340    17.8220    31.9280 ha         1 A1A       0.122000
     39 H15         26.3140    15.4780    31.8650 ha         1 A1A       0.122000
     40 H18         29.6010    17.5330    32.2380 hc         1 A1A       0.082700
     41 H20         31.9370    17.3970    31.3870 hc         1 A1A       0.072450
     42 H19         32.0230    19.2100    31.2860 hc         1 A1A       0.072450
     43 H22         30.0830    19.2300    29.6930 hc         1 A1A       0.072450
     44 H21         29.9850    17.4160    29.7750 hc         1 A1A       0.072450
     45 H23         27.8550    22.1870    31.0440 ha         1 A1A       0.128000
     46 H28         25.9710    18.2980    28.6400 ha         1 A1A       0.128500
     47 H1          25.2910    19.5080    32.7850 h1         1 A1A       0.116700
     48 H12         22.3220    17.2600    29.5750 ha         1 A1A       0.123500
     49 H14         25.9060    14.9050    29.5200 ha         1 A1A       0.123500
     50 H3          27.0530    17.4160    33.3310 h1         1 A1A       0.109700
     51 H16         29.8940    19.7570    33.4170 h1         1 A1A       0.062200
     52 H17         30.0090    20.5610    31.8600 h1         1 A1A       0.062200
     53 H5          25.4560    20.1460    35.7090 hc         1 A1A       0.070200
     54 H4          23.9970    19.9230    34.7490 hc         1 A1A       0.070200
     55 H24         26.8270    22.5080    28.8330 ha         1 A1A       0.128500
     56 H25         24.8690    20.0710    25.7020 h1         1 A1A       0.043367
     57 H26         25.9930    18.8830    26.3870 h1         1 A1A       0.043367
     58 H27         24.4100    19.1560    27.1490 h1         1 A1A       0.043367
     59 H29         26.9930    18.0050    30.8280 ha         1 A1A       0.128000
     60 H2          24.6670    17.9530    36.5720 h1         1 A1A       0.105700
     61 H9          20.0100    17.8460    36.6870 ha         1 A1A       0.123000
     62 H8          18.2770    16.4220    36.1310 ho         1 A1A       0.467000
     63 H13         24.4970    15.2190    27.7160 ho         1 A1A       0.466000
     64 O5          25.7880    20.7060    27.3770 os         1 A1A      -0.337100
     65 O3          23.8160    15.7850    28.0960 oh         1 A1A      -0.534100
     66 O6          28.1110    20.0110    34.8640 o          1 A1A      -0.533000
@<TRIPOS>BOND
     1     1    23 1   
     2     1    25 1   
     3     1    34 1   
     4     2     3 1   
     5     2    18 2   
     6     2    29 1   
     7     3     4 ar  
     8     3     7 ar  
     9     4     5 ar  
    10     4    35 1   
    11     5     6 ar  
    12     5    36 1   
    13     6    30 ar  
    14     6    32 1   
    15     7    30 ar  
    16     7    37 1   
    17     8    19 ar  
    18     8    20 ar  
    19     8    38 1   
    20     9    20 ar  
    21     9    21 ar  
    22     9    65 1   
    23    10    19 ar  
    24    10    21 ar  
    25    10    39 1   
    26    11    12 1   
    27    11    13 1   
    28    11    23 1   
    29    11    40 1   
    30    12    13 1   
    31    12    41 1   
    32    12    42 1   
    33    13    43 1   
    34    13    44 1   
    35    14    25 ar  
    36    14    26 ar  
    37    14    45 1   
    38    15    16 ar  
    39    15    26 ar  
    40    15    64 1   
    41    16    28 ar  
    42    16    46 1   
    43    17    22 1   
    44    17    24 1   
    45    17    34 1   
    46    17    47 1   
    47    18    19 1   
    48    18    22 1   
    49    20    48 1   
    50    21    49 1   
    51    22    33 1   
    52    22    50 1   
    53    23    51 1   
    54    23    52 1   
    55    24    29 1   
    56    24    53 1   
    57    24    54 1   
    58    25    28 ar  
    59    26    55 1   
    60    27    56 1   
    61    27    57 1   
    62    27    58 1   
    63    27    64 1   
    64    28    59 1   
    65    29    33 1   
    66    29    60 1   
    67    30    61 1   
    68    31    34 2   
    69    32    62 1   
    70    34    66 2   
    71    63    65 1   
@<TRIPOS>SUBSTRUCTURE
     1 A1A         1 TEMP              0 ****  ****    0 ROOT
