@<TRIPOS>MOLECULE
A1A
   52    55     1     0     0
SMALL
abcg2


@<TRIPOS>ATOM
      1 C10        177.5100   223.9860   177.9270 ca         1 A1A      -0.165000
      2 C11        177.9320   222.8480   178.6130 ca         1 A1A      -0.036300
      3 C14        174.5540   222.4340   179.0250 cc         1 A1A       0.047600
      4 C15        174.5010   221.6890   177.7310 c3         1 A1A      -0.069900
      5 C16        173.3280   223.0370   179.5130 ca         1 A1A      -0.154800
      6 C17        172.0910   222.9200   178.8690 ca         1 A1A      -0.048000
      7 C18        170.9550   223.5000   179.3910 ca         1 A1A      -0.136000
      8 C19        171.0430   224.2100   180.5840 ca         1 A1A       0.162100
      9 C23        169.8140   227.9110   179.6610 ca         1 A1A       0.362900
     10 C24        168.6200   228.4360   180.1100 ca         1 A1A      -0.168000
     11 C25        167.8260   227.6520   180.9460 ca         1 A1A      -0.092000
     12 C26        168.2740   226.4010   181.2810 ca         1 A1A       0.111000
     13 C28        172.2420   224.3560   181.2490 ca         1 A1A      -0.126000
     14 C29        173.3700   223.7620   180.7020 ca         1 A1A       0.178100
     15 C01        183.1910   224.4790   174.4400 c3         1 A1A       0.177100
     16 C07        180.1370   223.3170   177.7450 ca         1 A1A       0.588900
     17 C09        178.4280   224.7100   177.1910 ca         1 A1A       0.375900
     18 C12        177.0110   221.9560   179.4050 c3         1 A1A       0.020100
     19 C13        175.6900   222.5770   179.7510 cd         1 A1A      -0.227400
     20 C21        169.5000   225.9570   180.7810 ca         1 A1A       0.549300
     21 C31        175.7020   223.3950   180.9570 c          1 A1A       0.671300
     22 C33        179.2720   222.5410   178.5120 ca         1 A1A       0.092000
     23 F34        179.7670   221.4700   179.1490 f          1 A1A      -0.165000
     24 N06        181.4820   222.9730   177.6660 nu         1 A1A      -0.876000
     25 N08        179.7100   224.3760   177.0870 nb         1 A1A      -0.736000
     26 N22        170.2400   226.6920   179.9950 nb         1 A1A      -0.721000
     27 O30        174.5280   223.9250   181.3750 os         1 A1A      -0.326200
     28 O32        176.6800   223.6420   181.6150 o          1 A1A      -0.472000
     29 S03        182.6350   223.9450   176.9710 s6         1 A1A       1.285200
     30 H1         176.4770   224.3020   177.9590 ha         1 A1A       0.134000
     31 H3         175.4750   221.3450   177.3990 hc         1 A1A       0.057367
     32 H4         173.8440   220.8210   177.8090 hc         1 A1A       0.057367
     33 H5         174.0940   222.3270   176.9450 hc         1 A1A       0.057367
     34 H6         172.0140   222.3620   177.9460 ha         1 A1A       0.122000
     35 H7         170.0030   223.3970   178.8880 ha         1 A1A       0.136000
     36 H8         170.4620   228.4830   179.0090 h4         1 A1A       0.029100
     37 H9         168.3070   229.4280   179.8200 ha         1 A1A       0.134000
     38 H10        166.8780   228.0120   181.3240 ha         1 A1A       0.142000
     39 H11        172.3050   224.9120   182.1760 ha         1 A1A       0.155000
     40 H12        182.7410   224.4510   173.4510 h1         1 A1A       0.052367
     41 H13        183.5080   225.5040   174.6450 h1         1 A1A       0.052367
     42 H14        184.0630   223.8300   174.4290 h1         1 A1A       0.052367
     43 H15        178.1180   225.5930   176.6460 h4         1 A1A       0.029100
     44 H16        176.8620   221.0310   178.8460 hc         1 A1A       0.079700
     45 H17        177.5090   221.6550   180.3270 hc         1 A1A       0.079700
     46 H19        181.2900   224.4250   175.2860 hn         1 A1A       0.485000
     47 H20        181.7290   221.9910   177.6830 hn         1 A1A       0.525000
     48 O20        169.9010   224.7230   181.1470 os         1 A1A      -0.357400
     49 F27        167.5570   225.6000   182.0740 f          1 A1A      -0.153000
     50 N02        182.1940   223.9680   175.3800 n7         1 A1A      -0.886300
     51 O04        182.5530   225.2510   177.5920 o          1 A1A      -0.542500
     52 O05        183.8740   223.2030   177.0590 o          1 A1A      -0.542500
@<TRIPOS>BOND
     1     1     2 ar  
     2     1    17 ar  
     3     1    30 1   
     4     2    18 1   
     5     2    22 ar  
     6     3     4 1   
     7     3     5 1   
     8     3    19 2   
     9     4    31 1   
    10     4    32 1   
    11     4    33 1   
    12     5     6 ar  
    13     5    14 ar  
    14     6     7 ar  
    15     6    34 1   
    16     7     8 ar  
    17     7    35 1   
    18     8    13 ar  
    19     8    48 1   
    20     9    10 ar  
    21     9    26 ar  
    22     9    36 1   
    23    10    11 ar  
    24    10    37 1   
    25    11    12 ar  
    26    11    38 1   
    27    12    20 ar  
    28    12    49 1   
    29    13    14 ar  
    30    13    39 1   
    31    14    27 1   
    32    15    40 1   
    33    15    41 1   
    34    15    42 1   
    35    15    50 1   
    36    16    22 ar  
    37    16    24 1   
    38    16    25 ar  
    39    17    25 ar  
    40    17    43 1   
    41    18    19 1   
    42    18    44 1   
    43    18    45 1   
    44    19    21 1   
    45    20    26 ar  
    46    20    48 1   
    47    21    27 1   
    48    21    28 2   
    49    22    23 1   
    50    24    29 1   
    51    24    47 1   
    52    29    50 1   
    53    29    51 2   
    54    29    52 2   
    55    46    50 1   
@<TRIPOS>SUBSTRUCTURE
     1 A1A         1 TEMP              0 ****  ****    0 ROOT
