@<TRIPOS>MOLECULE
A1A
   49    52     1     0     0
SMALL
abcg2


@<TRIPOS>ATOM
      1 C10        133.4810   132.2900   135.8170 cx         1 A1A      -0.166700
      2 C13        133.7520   130.8910   135.3600 ca         1 A1A      -0.061300
      3 C15        134.9070   130.2280   135.7630 ca         1 A1A      -0.083000
      4 C17        135.1540   128.9280   135.3500 ca         1 A1A      -0.097500
      5 C21        133.8340   125.9100   135.1160 c          1 A1A       0.614100
      6 C22        134.3120   124.6240   137.1420 cc         1 A1A       0.382900
      7 C24        133.0540   124.1250   137.5330 cc         1 A1A      -0.216000
      8 C26        136.3740   121.8740   139.4790 ca         1 A1A       0.353300
      9 C28        137.0510   120.1670   137.9570 ca         1 A1A      -0.035000
     10 C11        133.1860   133.3500   134.7970 cx         1 A1A      -0.096400
     11 C12        134.4890   133.3640   135.5270 cx         1 A1A      -0.096400
     12 C14        132.7470   132.3490   137.1200 c3         1 A1A       0.337000
     13 C16        132.8500   130.2250   134.5370 ca         1 A1A      -0.083000
     14 C18        133.0980   128.9250   134.1230 ca         1 A1A      -0.097500
     15 C19        134.2530   128.2610   134.5240 ca         1 A1A      -0.077300
     16 C25        133.3290   123.4190   138.6800 cd         1 A1A      -0.157000
     17 C27        136.1420   121.1410   138.3200 ca         1 A1A      -0.143000
     18 C29        138.1620   119.9590   138.7700 ca         1 A1A      -0.071000
     19 C30        138.3050   120.7380   139.9170 ca         1 A1A       0.384900
     20 C31        139.1400   118.9750   138.4460 cg         1 A1A       0.323000
     21 F01        133.4120   131.7190   138.0990 f          1 A1A      -0.113333
     22 F02        132.5320   133.6010   137.5460 f          1 A1A      -0.113333
     23 F03        131.5440   131.7590   137.0380 f          1 A1A      -0.113333
     24 N05        134.6700   125.4130   136.0590 ns         1 A1A      -0.471400
     25 N06        134.6480   123.5260   138.9090 na         1 A1A       0.122800
     26 N07        135.2650   124.2560   137.9780 nd         1 A1A      -0.579800
     27 N08        137.4340   121.6700   140.2540 nb         1 A1A      -0.673000
     28 N09        139.9330   118.1810   138.1860 n1         1 A1A      -0.438000
     29 O04        132.6390   125.6850   135.0890 o          1 A1A      -0.573100
     30 H1         135.6290   130.7350   136.3910 ha         1 A1A       0.121500
     31 H2         136.0630   128.4300   135.6690 ha         1 A1A       0.119000
     32 H3         134.0720   126.6360   133.1320 hc         1 A1A       0.071700
     33 H4         135.5760   126.6400   134.0490 hc         1 A1A       0.071700
     34 H5         132.0980   124.2540   137.0620 ha         1 A1A       0.173000
     35 H6         136.9040   119.5790   137.0610 ha         1 A1A       0.134000
     36 H7         132.4570   134.1160   135.0250 hc         1 A1A       0.087200
     37 H8         133.1810   133.0290   133.7630 hc         1 A1A       0.087200
     38 H9         135.3790   133.0540   134.9940 hc         1 A1A       0.087200
     39 H10        134.6610   134.1390   136.2620 hc         1 A1A       0.087200
     40 H11        131.9520   130.7300   134.2030 ha         1 A1A       0.121500
     41 H12        132.3890   128.4270   133.4740 ha         1 A1A       0.119000
     42 H13        135.9770   123.7030   140.4960 h1         1 A1A       0.086200
     43 H14        134.7220   122.4880   140.6800 h1         1 A1A       0.086200
     44 H15        132.6820   122.8590   139.3370 h4         1 A1A       0.156000
     45 H16        135.2690   121.3180   137.7080 ha         1 A1A       0.141000
     46 H17        139.1580   120.5980   140.5720 h4         1 A1A       0.035100
     47 H18        135.6500   125.6470   135.9990 hn         1 A1A       0.331500
     48 C20        134.5040   126.8330   134.1140 c3         1 A1A      -0.112100
     49 C23        135.4180   122.9320   139.9650 c3         1 A1A       0.038300
@<TRIPOS>BOND
     1     1     2 1   
     2     1    10 1   
     3     1    11 1   
     4     1    12 1   
     5     2     3 ar  
     6     2    13 ar  
     7     3     4 ar  
     8     3    30 1   
     9     4    15 ar  
    10     4    31 1   
    11     5    24 1   
    12     5    29 2   
    13     5    48 1   
    14     6     7 1   
    15     6    24 1   
    16     6    26 2   
    17     7    16 2   
    18     7    34 1   
    19     8    17 ar  
    20     8    27 ar  
    21     8    49 1   
    22     9    17 ar  
    23     9    18 ar  
    24     9    35 1   
    25    10    11 1   
    26    10    36 1   
    27    10    37 1   
    28    11    38 1   
    29    11    39 1   
    30    12    21 1   
    31    12    22 1   
    32    12    23 1   
    33    13    14 ar  
    34    13    40 1   
    35    14    15 ar  
    36    14    41 1   
    37    15    48 1   
    38    16    25 1   
    39    16    44 1   
    40    17    45 1   
    41    18    19 ar  
    42    18    20 1   
    43    19    27 ar  
    44    19    46 1   
    45    20    28 3   
    46    24    47 1   
    47    25    26 1   
    48    25    49 1   
    49    32    48 1   
    50    33    48 1   
    51    42    49 1   
    52    43    49 1   
@<TRIPOS>SUBSTRUCTURE
     1 A1A         1 TEMP              0 ****  ****    0 ROOT
