@<TRIPOS>MOLECULE
A1A
   72    77     1     0     0
SMALL
No Charge or Current Charge


@<TRIPOS>ATOM
      1 N1         -27.5870   -38.0250   -10.3390 nh         1 A1A      -0.795300
      2 C2         -25.5480   -38.1820    -7.7030 c5         1 A1A      -0.067400
      3 C4         -24.0310   -40.1370    -7.7030 ce         1 A1A      -0.080400
      4 C5         -23.1930   -40.5290    -6.5390 ca         1 A1A      -0.077800
      5 C6         -23.6900   -41.4220    -5.5700 ca         1 A1A      -0.055000
      6 C1         -25.0760   -38.0050    -9.1990 c5         1 A1A      -0.340700
      7 O1         -25.6510   -36.8670   -11.6240 o          1 A1A      -0.537500
      8 S1         -26.2080   -36.9530   -10.2700 s6         1 A1A       1.218100
      9 C3         -25.5150   -39.7430    -7.5890 c5         1 A1A       0.180500
     10 O4         -25.9950   -40.1230    -8.8720 os         1 A1A      -0.425000
     11 O5         -28.7280   -40.7490   -15.1390 os         1 A1A      -0.339100
     12 O6         -26.6030   -35.7290    -9.5630 o          1 A1A      -0.537500
     13 C7         -22.8990   -41.7810    -4.4640 ca         1 A1A      -0.180000
     14 C8         -21.6090   -41.2460    -4.3210 ca         1 A1A       0.147100
     15 C9         -21.1110   -40.3500    -5.2780 ca         1 A1A      -0.180000
     16 C10        -21.9010   -39.9890    -6.3830 ca         1 A1A      -0.055000
     17 C11        -23.7050   -39.9980    -9.0270 cf         1 A1A      -0.064400
     18 C12        -22.4710   -40.2760    -9.7930 ca         1 A1A      -0.081800
     19 C13        -22.2020   -39.5750   -10.9880 ca         1 A1A      -0.055000
     20 C14        -21.0320   -39.8420   -11.7200 ca         1 A1A      -0.179000
     21 C15        -20.1260   -40.8120   -11.2720 ca         1 A1A       0.147100
     22 C16        -20.3880   -41.5220   -10.0900 ca         1 A1A      -0.179000
     23 C17        -21.5570   -41.2560    -9.3550 ca         1 A1A      -0.055000
     24 C18        -25.0070   -39.4820    -9.6770 c5         1 A1A       0.214500
     25 C19        -28.6970   -37.6740    -9.4040 c6         1 A1A       0.251500
     26 C20        -29.3170   -38.9380    -8.7300 c6         1 A1A      -0.084900
     27 C21        -30.7160   -38.6770    -8.0960 c6         1 A1A      -0.072900
     28 C22        -30.9500   -37.1800    -7.7870 c6         1 A1A      -0.078400
     29 C23        -30.8520   -36.3100    -9.0730 c6         1 A1A      -0.072900
     30 C24        -29.8080   -36.8420   -10.0980 c6         1 A1A      -0.084900
     31 C25        -27.8610   -38.7240   -11.5400 ca         1 A1A       0.218000
     32 C26        -27.8580   -40.1330   -11.5740 ca         1 A1A      -0.058000
     33 C27        -28.1420   -40.8320   -12.7620 ca         1 A1A      -0.170500
     34 C28        -28.4410   -40.1220   -13.9440 ca         1 A1A       0.152100
     35 C29        -28.7390   -42.1820   -15.2690 c3         1 A1A       0.147900
     36 C30        -28.4570   -38.7200   -13.9170 ca         1 A1A      -0.170500
     37 C31        -28.1720   -38.0270   -12.7270 ca         1 A1A      -0.058000
     38 H5         -24.8710   -37.7010    -6.9880 hc         1 A1A       0.065700
     39 H4         -26.5510   -37.7930    -7.5090 hc         1 A1A       0.065700
     40 H6         -24.6860   -41.8450    -5.6770 ha         1 A1A       0.119500
     41 H1         -24.1020   -37.5100    -9.2660 h1         1 A1A       0.116700
     42 H8         -21.3420   -42.2160    -2.6930 ho         1 A1A       0.466000
     43 H2         -26.0880   -40.1890    -6.7640 h1         1 A1A       0.099700
     44 H13        -18.4860   -41.7640   -11.5310 ho         1 A1A       0.466000
     45 H7         -23.2940   -42.4760    -3.7270 ha         1 A1A       0.123000
     46 H9         -20.1140   -39.9330    -5.1640 ha         1 A1A       0.123000
     47 H10        -21.5120   -39.2880    -7.1190 ha         1 A1A       0.119500
     48 H11        -22.8900   -38.8140   -11.3480 ha         1 A1A       0.123500
     49 H12        -20.8300   -39.2930   -12.6370 ha         1 A1A       0.124000
     50 H14        -19.6960   -42.2820    -9.7370 ha         1 A1A       0.124000
     51 H15        -21.7580   -41.8290    -8.4530 ha         1 A1A       0.123500
     52 H3         -25.1250   -39.6780   -10.7540 h1         1 A1A       0.118700
     53 H16        -28.3190   -37.0540    -8.5800 h1         1 A1A       0.062700
     54 H17        -29.4270   -39.7530    -9.4530 hc         1 A1A       0.049700
     55 H18        -28.6240   -39.3050    -7.9620 hc         1 A1A       0.049700
     56 H20        -31.4980   -39.0240    -8.7860 hc         1 A1A       0.042700
     57 H19        -30.8290   -39.2760    -7.1820 hc         1 A1A       0.042700
     58 H22        -30.2070   -36.8410    -7.0520 hc         1 A1A       0.039700
     59 H21        -31.9330   -37.0390    -7.3160 hc         1 A1A       0.039700
     60 H24        -30.5990   -35.2800    -8.7860 hc         1 A1A       0.042700
     61 H23        -31.8350   -36.2550    -9.5610 hc         1 A1A       0.042700
     62 H26        -29.3700   -35.9950   -10.6440 hc         1 A1A       0.049700
     63 H25        -30.3170   -37.4650   -10.8460 hc         1 A1A       0.049700
     64 H27        -27.6390   -40.6930   -10.6720 ha         1 A1A       0.126500
     65 H28        -28.1260   -41.9170   -12.7430 ha         1 A1A       0.125500
     66 H30        -28.9890   -42.4670   -16.2990 h1         1 A1A       0.042033
     67 H29        -27.7550   -42.6030   -15.0290 h1         1 A1A       0.042033
     68 H31        -29.4870   -42.6290   -14.6020 h1         1 A1A       0.042033
     69 H32        -28.6910   -38.1660   -14.8230 ha         1 A1A       0.125500
     70 H33        -28.1940   -36.9410   -12.7250 ha         1 A1A       0.126500
     71 O2         -20.8360   -41.5890    -3.2530 oh         1 A1A      -0.531100
     72 O3         -18.9960   -41.0620   -11.9900 oh         1 A1A      -0.530100
@<TRIPOS>BOND
     1     1     8 1   
     2     1    25 1   
     3     1    31 1   
     4     2     6 1   
     5     2     9 1   
     6     2    38 1   
     7     2    39 1   
     8     3     4 1   
     9     3     9 1   
    10     3    17 2   
    11     4     5 ar  
    12     4    16 ar  
    13     5    13 ar  
    14     5    40 1   
    15     6     8 1   
    16     6    24 1   
    17     6    41 1   
    18     7     8 2   
    19     8    12 2   
    20     9    10 1   
    21     9    43 1   
    22    10    24 1   
    23    11    34 1   
    24    11    35 1   
    25    13    14 ar  
    26    13    45 1   
    27    14    15 ar  
    28    14    71 1   
    29    15    16 ar  
    30    15    46 1   
    31    16    47 1   
    32    17    18 1   
    33    17    24 1   
    34    18    19 ar  
    35    18    23 ar  
    36    19    20 ar  
    37    19    48 1   
    38    20    21 ar  
    39    20    49 1   
    40    21    22 ar  
    41    21    72 1   
    42    22    23 ar  
    43    22    50 1   
    44    23    51 1   
    45    24    52 1   
    46    25    26 1   
    47    25    30 1   
    48    25    53 1   
    49    26    27 1   
    50    26    54 1   
    51    26    55 1   
    52    27    28 1   
    53    27    56 1   
    54    27    57 1   
    55    28    29 1   
    56    28    58 1   
    57    28    59 1   
    58    29    30 1   
    59    29    60 1   
    60    29    61 1   
    61    30    62 1   
    62    30    63 1   
    63    31    32 ar  
    64    31    37 ar  
    65    32    33 ar  
    66    32    64 1   
    67    33    34 ar  
    68    33    65 1   
    69    34    36 ar  
    70    35    66 1   
    71    35    67 1   
    72    35    68 1   
    73    36    37 ar  
    74    36    69 1   
    75    37    70 1   
    76    42    71 1   
    77    44    72 1   
@<TRIPOS>SUBSTRUCTURE
     1 A1A         1 TEMP              0 ****  ****    0 ROOT
