@<TRIPOS>MOLECULE
A1A
   57    59     1     0     0
SMALL
No Charge or Current Charge


@<TRIPOS>ATOM
      1 C10        132.5770   132.1930   136.2860 c6         1 A1A      -0.098400
      2 C13        131.6560   129.8410   136.0400 c6         1 A1A      -0.103400
      3 C15        128.9550   130.5160   139.3740 c6         1 A1A       0.186300
      4 C17        129.0470   131.5270   140.5500 c6         1 A1A      -0.131400
      5 C20        133.6460   132.4520   133.9330 c3         1 A1A      -0.098100
      6 C21        135.1300   132.2960   135.9690 c3         1 A1A      -0.098100
      7 C22        130.1320   133.9120   143.7150 c          1 A1A       0.617700
      8 C24        130.1520   136.3710   144.3090 ca         1 A1A      -0.070000
      9 C26        127.4330   136.6680   143.6990 ca         1 A1A       0.116000
     10 C28        128.1690   137.7730   144.1480 ca         1 A1A      -0.081000
     11 C08        132.0500   130.9540   137.0590 c6         1 A1A      -0.056700
     12 C09        130.8730   131.3290   138.0140 c3         1 A1A       0.180800
     13 C11        133.7820   131.8280   135.3540 c6         1 A1A       0.189000
     14 C12        130.2500   131.2490   141.5070 c6         1 A1A       0.182000
     15 C14        131.2120   129.5700   139.7950 c6         1 A1A       0.186300
     16 C16        130.8280   129.8300   141.2800 c6         1 A1A      -0.131400
     17 C18        132.7030   129.6740   134.9040 c6         1 A1A       0.162600
     18 C19        129.8870   131.4940   143.0080 c3         1 A1A       0.083000
     19 C23        129.4240   135.2440   143.8590 ca         1 A1A      -0.134600
     20 C25        128.0480   135.4120   143.5530 ca         1 A1A      -0.070000
     21 C27        129.5290   137.6220   144.4520 ca         1 A1A       0.116000
     22 F03        131.2760   132.1670   141.1920 f          1 A1A      -0.260000
     23 N06        130.2880   130.2040   138.7950 n3         1 A1A      -0.745600
     24 N07        129.3660   132.8440   143.2940 ns         1 A1A      -0.499900
     25 O04        133.9180   130.3900   135.2230 os         1 A1A      -0.460000
     26 O05        131.3220   133.7830   143.9660 o          1 A1A      -0.575100
     27 Cl2        130.4590   139.0050   145.0140 cl         1 A1A      -0.184000
     28 H1         132.8650   132.9820   136.9940 hc         1 A1A       0.044200
     29 H2         131.7570   132.6170   135.6910 hc         1 A1A       0.044200
     30 H3         130.6800   130.0690   135.5910 hc         1 A1A       0.048700
     31 H4         131.5330   128.8850   136.5660 hc         1 A1A       0.048700
     32 H5         128.2750   130.9110   138.6050 h1         1 A1A       0.051700
     33 H6         128.4930   129.5880   139.7450 h1         1 A1A       0.051700
     34 H7         129.1150   132.5490   140.1540 hc         1 A1A       0.054950
     35 H8         128.1000   131.4840   141.1040 hc         1 A1A       0.054950
     36 H9         133.7080   133.5460   133.9770 hc         1 A1A       0.040533
     37 H10        134.4440   132.1030   133.2660 hc         1 A1A       0.040533
     38 H11        132.6870   132.2040   133.4650 hc         1 A1A       0.040533
     39 H12        135.1610   133.3860   136.0790 hc         1 A1A       0.040533
     40 H13        135.2830   131.8590   136.9640 hc         1 A1A       0.040533
     41 H14        135.9800   132.0020   135.3420 hc         1 A1A       0.040533
     42 H15        131.2090   136.2820   144.5520 ha         1 A1A       0.144000
     43 H16        127.6890   138.7410   144.2580 ha         1 A1A       0.147000
     44 H17        132.8700   130.5800   137.6850 hc         1 A1A       0.061700
     45 H18        131.2250   132.1190   138.6910 h1         1 A1A       0.038200
     46 H19        130.0890   131.7790   137.3900 h1         1 A1A       0.038200
     47 H20        131.2450   128.4830   139.6330 h1         1 A1A       0.051700
     48 H21        132.2410   129.9280   139.6520 h1         1 A1A       0.051700
     49 H22        130.0840   129.0840   141.5930 hc         1 A1A       0.054950
     50 H23        131.7060   129.6660   141.9190 hc         1 A1A       0.054950
     51 H24        132.2950   130.0430   133.9520 h1         1 A1A       0.038700
     52 H25        132.9420   128.6090   134.7700 h1         1 A1A       0.038700
     53 H26        129.1250   130.7610   143.3060 h1         1 A1A       0.070200
     54 H27        130.7760   131.3060   143.6240 h1         1 A1A       0.070200
     55 H28        127.4390   134.5850   143.2010 ha         1 A1A       0.144000
     56 H30        128.3860   133.0230   143.1210 hn         1 A1A       0.314500
     57 Cl1        125.7260   136.8540   143.3140 cl         1 A1A      -0.184000
@<TRIPOS>BOND
     1     1    11 1   
     2     1    13 1   
     3     1    28 1   
     4     1    29 1   
     5     2    11 1   
     6     2    17 1   
     7     2    30 1   
     8     2    31 1   
     9     3     4 1   
    10     3    23 1   
    11     3    32 1   
    12     3    33 1   
    13     4    14 1   
    14     4    34 1   
    15     4    35 1   
    16     5    13 1   
    17     5    36 1   
    18     5    37 1   
    19     5    38 1   
    20     6    13 1   
    21     6    39 1   
    22     6    40 1   
    23     6    41 1   
    24     7    19 1   
    25     7    24 1   
    26     7    26 2   
    27     8    19 ar  
    28     8    21 ar  
    29     8    42 1   
    30     9    10 ar  
    31     9    20 ar  
    32     9    57 1   
    33    10    21 ar  
    34    10    43 1   
    35    11    12 1   
    36    11    44 1   
    37    12    23 1   
    38    12    45 1   
    39    12    46 1   
    40    13    25 1   
    41    14    16 1   
    42    14    18 1   
    43    14    22 1   
    44    15    16 1   
    45    15    23 1   
    46    15    47 1   
    47    15    48 1   
    48    16    49 1   
    49    16    50 1   
    50    17    25 1   
    51    17    51 1   
    52    17    52 1   
    53    18    24 1   
    54    18    53 1   
    55    18    54 1   
    56    19    20 ar  
    57    20    55 1   
    58    21    27 1   
    59    24    56 1   
@<TRIPOS>SUBSTRUCTURE
     1 A1A         1 TEMP              0 ****  ****    0 ROOT
