@<TRIPOS>MOLECULE
A1A
   63    67     1     0     0
SMALL
No Charge or Current Charge


@<TRIPOS>ATOM
      1 N1         -33.0760   -41.9170    24.5830 nh         1 A1A      -0.783300
      2 C2         -30.7060   -44.6830    26.5290 c5         1 A1A      -0.076400
      3 C4         -32.1550   -46.6640    26.5930 ce         1 A1A      -0.062400
      4 C5         -32.0890   -47.7530    27.6090 ca         1 A1A      -0.076800
      5 C6         -33.1200   -48.7100    27.6990 ca         1 A1A      -0.055500
      6 C1         -31.9730   -43.9100    25.9820 c5         1 A1A      -0.336700
      7 C10        -30.9830   -47.8500    28.4780 ca         1 A1A      -0.055500
      8 C11        -33.2330   -45.9960    26.0800 cf         1 A1A      -0.085400
      9 C12        -34.6630   -46.0040    26.4350 ca         1 A1A      -0.074800
     10 C13        -35.0590   -46.0980    27.7840 ca         1 A1A      -0.056500
     11 C14        -36.4220   -46.0800    28.1300 ca         1 A1A      -0.179000
     12 C15        -37.3970   -45.9670    27.1270 ca         1 A1A       0.138100
     13 C16        -37.0120   -45.8740    25.7820 ca         1 A1A      -0.179000
     14 C17        -35.6490   -45.8920    25.4350 ca         1 A1A      -0.056500
     15 C18        -32.6160   -44.9990    25.0770 c5         1 A1A       0.222500
     16 C19        -33.1860   -40.9990    23.4170 c3         1 A1A       0.184800
     17 C20        -33.4390   -41.7180    22.0700 c3         1 A1A       0.148600
     18 C21        -33.9720   -41.7170    25.6560 ca         1 A1A       0.178000
     19 C22        -35.1450   -42.4910    25.7310 ca         1 A1A      -0.055500
     20 C23        -36.0410   -42.3450    26.8040 ca         1 A1A      -0.170000
     21 C24        -35.7780   -41.3990    27.8170 ca         1 A1A       0.154100
     22 C25        -37.7910   -42.0210    29.0990 c3         1 A1A       0.148900
     23 C26        -34.6270   -40.6010    27.7310 ca         1 A1A      -0.170000
     24 C27        -33.7310   -40.7550    26.6570 ca         1 A1A      -0.055500
     25 C3         -30.9250   -46.0860    25.8710 c5         1 A1A       0.179500
     26 C7         -33.0530   -49.7390    28.6540 ca         1 A1A      -0.179000
     27 C8         -31.9550   -49.8230    29.5210 ca         1 A1A       0.148100
     28 C9         -30.9180   -48.8810    29.4340 ca         1 A1A      -0.179000
     29 O1         -30.8100   -41.4170    25.7430 o          1 A1A      -0.533500
     30 O2         -31.8990   -50.8240    30.4430 oh         1 A1A      -0.530100
     31 O3         -38.7200   -45.9480    27.4520 oh         1 A1A      -0.533100
     32 O4         -31.4770   -45.7160    24.6100 os         1 A1A      -0.401000
     33 O5         -34.3690   -42.7820    22.2980 oh         1 A1A      -0.652000
     34 O6         -36.6140   -41.2180    28.9000 os         1 A1A      -0.337100
     35 O7         -30.8550   -42.8800    23.6610 o          1 A1A      -0.533500
     36 S1         -31.4520   -42.4550    24.9300 s6         1 A1A       1.197100
     37 H5         -30.6860   -44.7350    27.6240 hc         1 A1A       0.071700
     38 H4         -29.7560   -44.2410    26.2080 hc         1 A1A       0.071700
     39 H6         -33.9710   -48.6610    27.0230 ha         1 A1A       0.119000
     40 H1         -32.6290   -43.5460    26.7770 h1         1 A1A       0.117700
     41 H10        -30.1750   -47.1240    28.4220 ha         1 A1A       0.119000
     42 H11        -34.3080   -46.1710    28.5670 ha         1 A1A       0.121500
     43 H12        -36.7090   -46.1500    29.1760 ha         1 A1A       0.124500
     44 H14        -37.7680   -45.7880    25.0060 ha         1 A1A       0.124500
     45 H15        -35.3620   -45.8260    24.3880 ha         1 A1A       0.121500
     46 H3         -33.2710   -44.6580    24.2640 h1         1 A1A       0.103700
     47 H17        -32.2860   -40.3750    23.3250 h1         1 A1A       0.062700
     48 H16        -34.0210   -40.3040    23.5830 h1         1 A1A       0.062700
     49 H18        -32.4880   -42.1200    21.6950 h1         1 A1A       0.059700
     50 H19        -33.8190   -41.0020    21.3290 h1         1 A1A       0.059700
     51 H21        -35.3580   -43.2200    24.9580 ha         1 A1A       0.127000
     52 H22        -36.9260   -42.9730    26.8320 ha         1 A1A       0.131000
     53 H23        -38.3020   -41.7240    30.0240 h1         1 A1A       0.042367
     54 H24        -38.4950   -41.8950    28.2670 h1         1 A1A       0.042367
     55 H25        -37.5290   -43.0830    29.1810 h1         1 A1A       0.042367
     56 H26        -34.4260   -39.8620    28.5020 ha         1 A1A       0.131000
     57 H27        -32.8500   -40.1220    26.6050 ha         1 A1A       0.127000
     58 H2         -30.0460   -46.7410    25.7880 h1         1 A1A       0.106700
     59 H7         -33.8530   -50.4720    28.7190 ha         1 A1A       0.123500
     60 H9         -30.0610   -48.9390    30.1000 ha         1 A1A       0.123500
     61 H8         -31.0680   -50.7280    30.9560 ho         1 A1A       0.467000
     62 H13        -38.8030   -46.0740    28.4210 ho         1 A1A       0.466000
     63 H20        -34.2610   -42.9460    23.2630 ho         1 A1A       0.438000
@<TRIPOS>BOND
     1     1    16 1   
     2     1    18 1   
     3     1    36 1   
     4     2     6 1   
     5     2    25 1   
     6     2    37 1   
     7     2    38 1   
     8     3     4 1   
     9     3     8 2   
    10     3    25 1   
    11     4     5 ar  
    12     4     7 ar  
    13     5    26 ar  
    14     5    39 1   
    15     6    15 1   
    16     6    36 1   
    17     6    40 1   
    18     7    28 ar  
    19     7    41 1   
    20     8     9 1   
    21     8    15 1   
    22     9    10 ar  
    23     9    14 ar  
    24    10    11 ar  
    25    10    42 1   
    26    11    12 ar  
    27    11    43 1   
    28    12    13 ar  
    29    12    31 1   
    30    13    14 ar  
    31    13    44 1   
    32    14    45 1   
    33    15    32 1   
    34    15    46 1   
    35    16    17 1   
    36    16    47 1   
    37    16    48 1   
    38    17    33 1   
    39    17    49 1   
    40    17    50 1   
    41    18    19 ar  
    42    18    24 ar  
    43    19    20 ar  
    44    19    51 1   
    45    20    21 ar  
    46    20    52 1   
    47    21    23 ar  
    48    21    34 1   
    49    22    34 1   
    50    22    53 1   
    51    22    54 1   
    52    22    55 1   
    53    23    24 ar  
    54    23    56 1   
    55    24    57 1   
    56    25    32 1   
    57    25    58 1   
    58    26    27 ar  
    59    26    59 1   
    60    27    28 ar  
    61    27    30 1   
    62    28    60 1   
    63    29    36 2   
    64    30    61 1   
    65    31    62 1   
    66    33    63 1   
    67    35    36 2   
@<TRIPOS>SUBSTRUCTURE
     1 A1A         1 TEMP              0 ****  ****    0 ROOT
