@<TRIPOS>MOLECULE
A1A
   52    55     1     0     0
SMALL
No Charge or Current Charge


@<TRIPOS>ATOM
      1 C10        177.8710   224.0700   178.1440 ca         1 A1A      -0.165000
      2 C11        178.1690   222.7870   178.6520 ca         1 A1A      -0.036300
      3 C14        174.6920   222.7580   178.9280 cc         1 A1A       0.047600
      4 C15        174.6210   222.3020   177.4830 c3         1 A1A      -0.069900
      5 C16        173.5440   223.4110   179.5820 ca         1 A1A      -0.154800
      6 C17        172.2910   223.5140   178.9300 ca         1 A1A      -0.048000
      7 C18        171.2030   224.1460   179.5570 ca         1 A1A      -0.136000
      8 C19        171.3480   224.6900   180.8430 ca         1 A1A       0.162100
      9 C23        169.0520   227.8600   179.3260 ca         1 A1A       0.362900
     10 C24        167.6930   227.9450   179.6810 ca         1 A1A      -0.168000
     11 C25        167.1890   227.1010   180.6860 ca         1 A1A      -0.092000
     12 C26        168.0760   226.1980   181.2930 ca         1 A1A       0.111000
     13 C28        172.5720   224.5670   181.5100 ca         1 A1A      -0.126000
     14 C29        173.6550   223.9350   180.8830 ca         1 A1A       0.178100
     15 C01        182.5270   224.3400   174.3490 c3         1 A1A       0.177100
     16 C07        180.4770   223.2250   177.9920 ca         1 A1A       0.588900
     17 C09        178.8970   224.8590   177.5970 ca         1 A1A       0.375900
     18 C12        177.0920   221.8830   179.2590 c3         1 A1A       0.020100
     19 C13        175.8280   222.6020   179.7210 cd         1 A1A      -0.227400
     20 C21        169.4280   226.1650   180.8700 ca         1 A1A       0.549300
     21 C31        175.9180   223.1650   181.1060 c          1 A1A       0.671300
     22 C33        179.5100   222.3620   178.5690 ca         1 A1A       0.092000
     23 F34        179.8700   221.1360   179.0290 f          1 A1A      -0.165000
     24 N06        181.8020   222.8700   177.9150 nu         1 A1A      -0.876000
     25 N08        180.1830   224.4490   177.5170 nb         1 A1A      -0.736000
     26 N22        169.9130   226.9920   179.9060 nb         1 A1A      -0.721000
     27 O30        174.8210   223.8190   181.5760 os         1 A1A      -0.326200
     28 O32        176.9190   223.0690   181.8030 o          1 A1A      -0.472000
     29 S03        182.8930   223.2490   176.7670 s6         1 A1A       1.285200
     30 H1         176.8610   224.4680   178.1650 ha         1 A1A       0.134000
     31 H3         175.6090   222.1830   177.0280 hc         1 A1A       0.057367
     32 H4         174.0930   221.3440   177.4030 hc         1 A1A       0.057367
     33 H5         174.0970   223.0350   176.8610 hc         1 A1A       0.057367
     34 H6         172.1360   223.1000   177.9370 ha         1 A1A       0.122000
     35 H7         170.2480   224.2070   179.0410 ha         1 A1A       0.136000
     36 H8         169.4640   228.5080   178.5530 h4         1 A1A       0.029100
     37 H9         167.0480   228.6620   179.1810 ha         1 A1A       0.134000
     38 H10        166.1450   227.1440   180.9870 ha         1 A1A       0.142000
     39 H11        172.6820   224.9590   182.5160 ha         1 A1A       0.155000
     40 H12        181.7720   224.5180   173.5720 h1         1 A1A       0.052367
     41 H13        182.8890   225.3180   174.6940 h1         1 A1A       0.052367
     42 H14        183.3680   223.8080   173.8830 h1         1 A1A       0.052367
     43 H15        178.6800   225.8520   177.2050 h4         1 A1A       0.029100
     44 H16        176.8430   221.0930   178.5410 hc         1 A1A       0.079700
     45 H17        177.5230   221.3230   180.0990 hc         1 A1A       0.079700
     46 H19        181.2400   224.1050   175.9410 hn         1 A1A       0.485000
     47 H20        181.9900   221.8980   178.0940 hn         1 A1A       0.525000
     48 O20        170.2930   225.2890   181.4910 os         1 A1A      -0.357400
     49 F27        167.6260   225.3700   182.2680 f          1 A1A      -0.153000
     50 N02        181.9550   223.5540   175.4550 n7         1 A1A      -0.886300
     51 O04        183.5470   224.4890   177.1750 o          1 A1A      -0.542500
     52 O05        183.6310   222.0150   176.5190 o          1 A1A      -0.542500
@<TRIPOS>BOND
     1     1     2 ar  
     2     1    17 ar  
     3     1    30 1   
     4     2    18 1   
     5     2    22 ar  
     6     3     4 1   
     7     3     5 1   
     8     3    19 2   
     9     4    31 1   
    10     4    32 1   
    11     4    33 1   
    12     5     6 ar  
    13     5    14 ar  
    14     6     7 ar  
    15     6    34 1   
    16     7     8 ar  
    17     7    35 1   
    18     8    13 ar  
    19     8    48 1   
    20     9    10 ar  
    21     9    26 ar  
    22     9    36 1   
    23    10    11 ar  
    24    10    37 1   
    25    11    12 ar  
    26    11    38 1   
    27    12    20 ar  
    28    12    49 1   
    29    13    14 ar  
    30    13    39 1   
    31    14    27 1   
    32    15    40 1   
    33    15    41 1   
    34    15    42 1   
    35    15    50 1   
    36    16    22 ar  
    37    16    24 1   
    38    16    25 ar  
    39    17    25 ar  
    40    17    43 1   
    41    18    19 1   
    42    18    44 1   
    43    18    45 1   
    44    19    21 1   
    45    20    26 ar  
    46    20    48 1   
    47    21    27 1   
    48    21    28 2   
    49    22    23 1   
    50    24    29 1   
    51    24    47 1   
    52    29    50 1   
    53    29    51 2   
    54    29    52 2   
    55    46    50 1   
@<TRIPOS>SUBSTRUCTURE
     1 A1A         1 TEMP              0 ****  ****    0 ROOT
