@<TRIPOS>MOLECULE
A1A
   48    50     1     0     0
SMALL
abcg2


@<TRIPOS>ATOM
      1 C10        131.0480   132.0850   134.9300 cx         1 A1A      -0.122900
      2 C13        133.6660   129.3760   134.5530 ca         1 A1A      -0.107500
      3 C15        134.5940   128.6290   135.2650 ca         1 A1A      -0.090500
      4 C17        136.0460   128.2480   137.2870 c3         1 A1A      -0.109100
      5 C20        135.5860   124.7450   139.9900 ca         1 A1A       0.314300
      6 C21        136.3300   126.3910   141.7100 c3         1 A1A      -0.104100
      7 C22        136.5890   124.2590   139.1660 ca         1 A1A      -0.112000
      8 C24        135.6360   122.0840   139.3660 ca         1 A1A       0.078100
      9 C26        136.4650   120.1470   138.3000 c3         1 A1A       0.087600
     10 C08        132.1770   131.3470   134.2620 cx         1 A1A      -0.086400
     11 C09        132.1500   132.8510   134.2810 cx         1 A1A      -0.122900
     12 C11        133.1690   130.5790   135.0520 ca         1 A1A      -0.035300
     13 C12        133.6420   131.0100   136.2920 ca         1 A1A      -0.107500
     14 C14        134.5710   130.2640   137.0000 ca         1 A1A      -0.090500
     15 C16        135.0620   129.0610   136.4990 ca         1 A1A      -0.076300
     16 C18        135.3580   127.2990   138.2550 c          1 A1A       0.595100
     17 C19        135.5260   126.1910   140.4310 c3         1 A1A       0.071400
     18 C23        136.6200   122.9110   138.8420 ca         1 A1A      -0.156000
     19 C25        134.6700   122.6570   140.1920 ca         1 A1A       0.332900
     20 C27        136.0760   118.6890   138.2220 c3         1 A1A       0.310000
     21 F01        134.8360   118.5250   137.7500 f          1 A1A      -0.106333
     22 F02        136.1220   118.0920   139.4170 f          1 A1A      -0.106333
     23 F03        136.9100   118.0330   137.4090 f          1 A1A      -0.106333
     24 N06        136.0090   127.1000   139.4150 ns         1 A1A      -0.518900
     25 N07        134.6500   123.9430   140.4900 nb         1 A1A      -0.635000
     26 O04        134.3090   126.7380   137.9860 o          1 A1A      -0.575100
     27 H1         130.0790   132.0630   134.4480 hc         1 A1A       0.072950
     28 H2         131.0060   132.0640   136.0130 hc         1 A1A       0.072950
     29 H3         133.3210   129.0160   133.5900 ha         1 A1A       0.111500
     30 H4         134.9630   127.7010   134.8450 ha         1 A1A       0.110000
     31 H5         136.6470   127.6300   136.6130 hc         1 A1A       0.060200
     32 H6         136.7460   128.8980   137.8160 hc         1 A1A       0.060200
     33 H7         135.9640   125.7250   142.4900 hc         1 A1A       0.046700
     34 H8         137.3870   126.1720   141.5490 hc         1 A1A       0.046700
     35 H9         136.2380   127.4160   142.0700 hc         1 A1A       0.046700
     36 H10        137.3460   124.9210   138.7660 ha         1 A1A       0.121000
     37 H11        137.4860   120.2220   138.6910 h1         1 A1A       0.070200
     38 H12        136.4520   120.5730   137.2900 h1         1 A1A       0.070200
     39 H13        131.9320   130.8900   133.3090 hc         1 A1A       0.080700
     40 H14        132.8650   133.3600   134.9170 hc         1 A1A       0.072950
     41 H15        131.9460   133.3600   133.3480 hc         1 A1A       0.072950
     42 H16        133.2900   131.9410   136.7210 ha         1 A1A       0.111500
     43 H17        134.9230   130.6290   137.9590 ha         1 A1A       0.110000
     44 H18        134.4770   126.4180   140.6420 h1         1 A1A       0.092700
     45 H19        137.4040   122.5390   138.1950 ha         1 A1A       0.120000
     46 H20        133.8880   122.0340   140.6140 h4         1 A1A       0.038100
     47 H21        136.8680   127.5980   139.5870 hn         1 A1A       0.313500
     48 O05        135.5270   120.7580   139.1440 os         1 A1A      -0.321100
@<TRIPOS>BOND
     1     1    10 1   
     2     1    11 1   
     3     1    27 1   
     4     1    28 1   
     5     2     3 ar  
     6     2    12 ar  
     7     2    29 1   
     8     3    15 ar  
     9     3    30 1   
    10     4    15 1   
    11     4    16 1   
    12     4    31 1   
    13     4    32 1   
    14     5     7 ar  
    15     5    17 1   
    16     5    25 ar  
    17     6    17 1   
    18     6    33 1   
    19     6    34 1   
    20     6    35 1   
    21     7    18 ar  
    22     7    36 1   
    23     8    18 ar  
    24     8    19 ar  
    25     8    48 1   
    26     9    20 1   
    27     9    37 1   
    28     9    38 1   
    29     9    48 1   
    30    10    11 1   
    31    10    12 1   
    32    10    39 1   
    33    11    40 1   
    34    11    41 1   
    35    12    13 ar  
    36    13    14 ar  
    37    13    42 1   
    38    14    15 ar  
    39    14    43 1   
    40    16    24 1   
    41    16    26 2   
    42    17    24 1   
    43    17    44 1   
    44    18    45 1   
    45    19    25 ar  
    46    19    46 1   
    47    20    21 1   
    48    20    22 1   
    49    20    23 1   
    50    24    47 1   
@<TRIPOS>SUBSTRUCTURE
     1 A1A         1 TEMP              0 ****  ****    0 ROOT
