@<TRIPOS>MOLECULE
A1A
   59    62     1     0     0
SMALL
No Charge or Current Charge


@<TRIPOS>ATOM
      1 N1         -22.9660     7.3250   -16.0930 n1         1 A1A      -0.521000
      2 N3         -18.8640     9.7930   -16.6140 nc         1 A1A      -0.255800
      3 C4         -22.0780     7.7090   -15.4360 c1         1 A1A       0.349900
      4 C5         -20.7190    10.1590   -13.2820 c5         1 A1A       0.125300
      5 C6         -19.1980    10.4920   -13.1400 c3         1 A1A       0.219600
      6 C7         -17.5100     6.7800    -9.9630 c3         1 A1A       0.222600
      7 C8         -18.0130     5.5000   -10.6910 c5         1 A1A       0.158300
      8 C10        -16.8670     3.5970   -11.7440 c5         1 A1A       0.076300
      9 C13        -19.1120     6.5280   -15.1640 cc         1 A1A      -0.185000
     10 C15        -17.7270     7.6340   -16.5040 cd         1 A1A      -0.267000
     11 C17        -16.7880     8.1450   -17.3440 cc         1 A1A       0.447900
     12 C1         -21.3110     9.0570   -12.3460 c5         1 A1A       0.141300
     13 C11        -16.8060     4.9100   -12.6050 c5         1 A1A       0.391300
     14 C12        -19.5980     7.8160   -15.2960 cd         1 A1A      -0.071300
     15 C14        -17.9240     6.4130   -15.9160 cc         1 A1A      -0.194000
     16 C16        -17.8650    10.1650   -17.4350 cd         1 A1A       0.108900
     17 C2         -20.9380     7.7520   -13.1220 c5         1 A1A       0.161300
     18 C3         -20.9220     8.2240   -14.6470 c5         1 A1A       0.296300
     19 C9         -17.1750     4.2120   -10.3410 c5         1 A1A       0.136300
     20 N2         -18.7320     8.5080   -16.1610 na         1 A1A       0.298900
     21 N4         -16.7810     9.3650   -17.8360 nd         1 A1A      -0.334000
     22 N5         -15.7480     7.3900   -17.7510 nv         1 A1A      -1.078900
     23 O1         -22.7490     9.1620   -12.2110 oh         1 A1A      -0.717000
     24 O10        -19.1060    10.2930    -9.9060 o          1 A1A      -0.855500
     25 O11        -17.3170     9.3500    -8.5330 o          1 A1A      -0.855500
     26 O12        -16.2450    10.4530   -13.3090 o          1 A1A      -0.846500
     27 O13        -16.2160     8.0860   -12.6670 o          1 A1A      -0.846500
     28 O2         -21.0360     9.6770   -14.6080 os         1 A1A      -0.419000
     29 O4         -16.8490     9.8310   -10.9530 os         1 A1A      -0.734800
     30 O5         -18.3260     7.8910   -10.3580 os         1 A1A      -0.589400
     31 O6         -17.9390     5.6400   -12.1380 os         1 A1A      -0.437000
     32 O7         -15.6390     5.6720   -12.3700 oh         1 A1A      -0.819000
     33 O8         -17.9250     2.6730   -12.1260 oh         1 A1A      -0.748000
     34 O9         -17.9010     3.2390    -9.5910 oh         1 A1A      -0.721000
     35 P1         -16.8910     9.4020   -12.4700 p5         1 A1A       1.506800
     36 P2         -17.9270     9.3790    -9.8950 p5         1 A1A       1.483800
     37 H4         -21.2530    11.1070   -13.1420 h1         1 A1A       0.043700
     38 H5         -18.8350    10.9240   -14.0810 h1         1 A1A       0.043700
     39 H6         -19.0810    11.2580   -12.3620 h1         1 A1A       0.043700
     40 H7         -16.4540     6.9600   -10.2010 h1         1 A1A       0.018700
     41 H8         -17.5880     6.6160    -8.8810 h1         1 A1A       0.018700
     42 H9         -19.0680     5.3600   -10.4230 h1         1 A1A       0.079700
     43 H11        -15.8940     3.0860   -11.7450 h1         1 A1A       0.064700
     44 H16        -19.5550     5.7170   -14.5860 ha         1 A1A       0.224000
     45 H2         -20.8240     9.0730   -11.3600 h1         1 A1A       0.114700
     46 H12        -16.9050     4.7010   -13.6780 h2         1 A1A       0.030700
     47 H17        -17.3120     5.5180   -16.0100 ha         1 A1A       0.195000
     48 H18        -17.8810    11.1710   -17.8350 h5         1 A1A       0.038100
     49 H3         -19.9350     7.4230   -12.8180 h1         1 A1A       0.122700
     50 H10        -16.2440     4.4830    -9.8220 h1         1 A1A       0.036700
     51 H19        -14.9600     7.8800   -18.1640 hn         1 A1A       0.495500
     52 H20        -15.5250     6.5680   -17.1990 hn         1 A1A       0.495500
     53 H1         -22.9410    10.0220   -11.7680 ho         1 A1A       0.488000
     54 H21        -22.6610     7.2730   -12.4410 ho         1 A1A       0.496000
     55 H13        -15.9390     6.6410   -12.5190 ho         1 A1A       0.621000
     56 H14        -17.7660     2.4150   -13.0660 ho         1 A1A       0.506000
     57 H15        -18.2260     2.6540   -10.3280 ho         1 A1A       0.501000
     58 O14        -21.9010     6.7350   -12.7830 oh         1 A1A      -0.694000
     59 O3         -18.4630     9.3170   -12.7930 os         1 A1A      -0.611400
@<TRIPOS>BOND
     1     1     3 3   
     2     2    16 2   
     3     2    20 1   
     4     3    18 1   
     5     4     5 1   
     6     4    12 1   
     7     4    28 1   
     8     4    37 1   
     9     5    38 1   
    10     5    39 1   
    11     5    59 1   
    12     6     7 1   
    13     6    30 1   
    14     6    40 1   
    15     6    41 1   
    16     7    19 1   
    17     7    31 1   
    18     7    42 1   
    19     8    13 1   
    20     8    19 1   
    21     8    33 1   
    22     8    43 1   
    23     9    14 2   
    24     9    15 1   
    25     9    44 1   
    26    10    11 1   
    27    10    15 2   
    28    10    20 1   
    29    11    21 2   
    30    11    22 1   
    31    12    17 1   
    32    12    23 1   
    33    12    45 1   
    34    13    31 1   
    35    13    32 1   
    36    13    46 1   
    37    14    18 1   
    38    14    20 1   
    39    15    47 1   
    40    16    21 1   
    41    16    48 1   
    42    17    18 1   
    43    17    49 1   
    44    17    58 1   
    45    18    28 1   
    46    19    34 1   
    47    19    50 1   
    48    22    51 1   
    49    22    52 1   
    50    23    53 1   
    51    24    36 1   
    52    25    36 1   
    53    26    35 1   
    54    27    35 1   
    55    29    35 1   
    56    29    36 1   
    57    30    36 1   
    58    32    55 1   
    59    33    56 1   
    60    34    57 1   
    61    35    59 1   
    62    54    58 1   
@<TRIPOS>SUBSTRUCTURE
     1 A1A         1 TEMP              0 ****  ****    0 ROOT
