@<TRIPOS>MOLECULE
A1A
   72    77     1     0     0
SMALL
No Charge or Current Charge


@<TRIPOS>ATOM
      1 N1         -32.8090   -15.4840    -0.1910 nh         1 A1A      -0.811300
      2 C2         -30.3720   -12.6220    -1.8550 c5         1 A1A      -0.065400
      3 C4         -31.9400   -10.7430    -2.0800 ce         1 A1A      -0.062400
      4 C5         -31.8340    -9.6410    -3.0780 ca         1 A1A      -0.076800
      5 C6         -30.6440    -9.4580    -3.8120 ca         1 A1A      -0.055000
      6 C1         -31.6410   -13.4810    -1.4700 c5         1 A1A      -0.348700
      7 O1         -30.4280   -15.9360    -1.1210 o          1 A1A      -0.531500
      8 S1         -31.1700   -14.9170    -0.3730 s6         1 A1A       1.229100
      9 C3         -30.7630   -11.2450    -1.2240 c5         1 A1A       0.178500
     10 O4         -31.4300   -11.6660    -0.0350 os         1 A1A      -0.402000
     11 O5         -36.0900   -16.2330    -4.7020 os         1 A1A      -0.338100
     12 O6         -30.7000   -14.4680     0.9420 o          1 A1A      -0.531500
     13 C7         -30.5430    -8.4150    -4.7500 ca         1 A1A      -0.179000
     14 C8         -31.6240    -7.5460    -4.9570 ca         1 A1A       0.147100
     15 C9         -32.8090    -7.7150    -4.2240 ca         1 A1A      -0.179000
     16 C10        -32.9120    -8.7580    -3.2860 ca         1 A1A      -0.055000
     17 C11        -33.0230   -11.4850    -1.6930 cf         1 A1A      -0.086400
     18 C12        -34.4050   -11.5640    -2.1970 ca         1 A1A      -0.074800
     19 C13        -34.6630   -11.4930    -3.5800 ca         1 A1A      -0.058000
     20 C14        -35.9790   -11.5950    -4.0620 ca         1 A1A      -0.180500
     21 C15        -37.0450   -11.7650    -3.1670 ca         1 A1A       0.141100
     22 C16        -36.7980   -11.8350    -1.7870 ca         1 A1A      -0.180500
     23 C17        -35.4800   -11.7380    -1.3040 ca         1 A1A      -0.058000
     24 C18        -32.4570   -12.4520    -0.6340 c5         1 A1A       0.215500
     25 C19        -33.0610   -16.1620     1.1100 c6         1 A1A       0.251500
     26 C20        -33.8850   -17.4740     0.9530 c6         1 A1A      -0.086400
     27 C21        -34.1170   -18.1570     2.3250 c6         1 A1A      -0.073900
     28 C22        -34.8140   -17.1920     3.3150 c6         1 A1A      -0.076400
     29 C23        -34.0160   -15.8730     3.4700 c6         1 A1A      -0.073900
     30 C24        -33.7760   -15.1970     2.0960 c6         1 A1A      -0.086400
     31 C25        -33.6380   -15.7120    -1.3140 ca         1 A1A       0.198000
     32 C26        -34.8880   -15.0710    -1.3820 ca         1 A1A      -0.058500
     33 C27        -35.7260   -15.2310    -2.5000 ca         1 A1A      -0.172500
     34 C28        -35.3200   -16.0520    -3.5710 ca         1 A1A       0.153100
     35 C29        -37.3250   -15.5240    -4.9060 c3         1 A1A       0.147900
     36 C30        -34.0880   -16.7190    -3.4980 ca         1 A1A      -0.172500
     37 C31        -33.2510   -16.5520    -2.3780 ca         1 A1A      -0.058500
     38 H5         -29.4410   -13.0060    -1.4210 hc         1 A1A       0.069700
     39 H4         -30.2220   -12.5560    -2.9390 hc         1 A1A       0.069700
     40 H6         -29.7990   -10.1250    -3.6650 ha         1 A1A       0.118500
     41 H1         -32.1780   -13.8740    -2.3370 h1         1 A1A       0.113700
     42 H8         -32.3580    -6.0380    -5.8770 ho         1 A1A       0.467000
     43 H2         -29.9480   -10.5330    -1.0360 h1         1 A1A       0.105700
     44 H13        -38.9300   -11.9350    -2.8820 ho         1 A1A       0.467000
     45 H7         -29.6250    -8.2820    -5.3160 ha         1 A1A       0.123000
     46 H9         -33.6510    -7.0440    -4.3730 ha         1 A1A       0.123000
     47 H10        -33.8300    -8.8730    -2.7140 ha         1 A1A       0.118500
     48 H11        -33.8400   -11.3730    -4.2810 ha         1 A1A       0.122000
     49 H12        -36.1710   -11.5450    -5.1310 ha         1 A1A       0.123500
     50 H14        -37.6170   -11.9660    -1.0850 ha         1 A1A       0.123500
     51 H15        -35.2980   -11.7900    -0.2330 ha         1 A1A       0.122000
     52 H3         -33.1780   -12.8500     0.0940 h1         1 A1A       0.105700
     53 H16        -32.1060   -16.4620     1.5710 h1         1 A1A       0.081700
     54 H17        -34.8590   -17.2640     0.4920 hc         1 A1A       0.046950
     55 H18        -33.3590   -18.1670     0.2830 hc         1 A1A       0.046950
     56 H19        -34.7270   -19.0600     2.1930 hc         1 A1A       0.043200
     57 H20        -33.1550   -18.4870     2.7420 hc         1 A1A       0.043200
     58 H21        -34.9240   -17.6770     4.2940 hc         1 A1A       0.041200
     59 H22        -35.8300   -16.9690     2.9610 hc         1 A1A       0.041200
     60 H23        -33.0520   -16.0780     3.9550 hc         1 A1A       0.043200
     61 H24        -34.5590   -15.1850     4.1330 hc         1 A1A       0.043200
     62 H26        -33.1760   -14.2890     2.2360 hc         1 A1A       0.046950
     63 H25        -34.7370   -14.8750     1.6760 hc         1 A1A       0.046950
     64 H27        -35.2040   -14.4290    -0.5670 ha         1 A1A       0.126000
     65 H28        -36.6760   -14.7070    -2.5170 ha         1 A1A       0.128000
     66 H29        -37.7640   -15.7970    -5.8740 h1         1 A1A       0.042700
     67 H31        -38.0520   -15.7710    -4.1220 h1         1 A1A       0.042700
     68 H30        -37.1570   -14.4400    -4.9030 h1         1 A1A       0.042700
     69 H32        -33.7750   -17.3640    -4.3150 ha         1 A1A       0.128000
     70 H33        -32.3070   -17.0850    -2.3410 ha         1 A1A       0.126000
     71 O2         -31.5150    -6.5390    -5.8680 oh         1 A1A      -0.530100
     72 O3         -38.3170   -11.8650    -3.6440 oh         1 A1A      -0.532100
@<TRIPOS>BOND
     1     1     8 1   
     2     1    25 1   
     3     1    31 1   
     4     2     6 1   
     5     2     9 1   
     6     2    38 1   
     7     2    39 1   
     8     3     4 1   
     9     3     9 1   
    10     3    17 2   
    11     4     5 ar  
    12     4    16 ar  
    13     5    13 ar  
    14     5    40 1   
    15     6     8 1   
    16     6    24 1   
    17     6    41 1   
    18     7     8 2   
    19     8    12 2   
    20     9    10 1   
    21     9    43 1   
    22    10    24 1   
    23    11    34 1   
    24    11    35 1   
    25    13    14 ar  
    26    13    45 1   
    27    14    15 ar  
    28    14    71 1   
    29    15    16 ar  
    30    15    46 1   
    31    16    47 1   
    32    17    18 1   
    33    17    24 1   
    34    18    19 ar  
    35    18    23 ar  
    36    19    20 ar  
    37    19    48 1   
    38    20    21 ar  
    39    20    49 1   
    40    21    22 ar  
    41    21    72 1   
    42    22    23 ar  
    43    22    50 1   
    44    23    51 1   
    45    24    52 1   
    46    25    26 1   
    47    25    30 1   
    48    25    53 1   
    49    26    27 1   
    50    26    54 1   
    51    26    55 1   
    52    27    28 1   
    53    27    56 1   
    54    27    57 1   
    55    28    29 1   
    56    28    58 1   
    57    28    59 1   
    58    29    30 1   
    59    29    60 1   
    60    29    61 1   
    61    30    62 1   
    62    30    63 1   
    63    31    32 ar  
    64    31    37 ar  
    65    32    33 ar  
    66    32    64 1   
    67    33    34 ar  
    68    33    65 1   
    69    34    36 ar  
    70    35    66 1   
    71    35    67 1   
    72    35    68 1   
    73    36    37 ar  
    74    36    69 1   
    75    37    70 1   
    76    42    71 1   
    77    44    72 1   
@<TRIPOS>SUBSTRUCTURE
     1 A1A         1 TEMP              0 ****  ****    0 ROOT
