@<TRIPOS>MOLECULE
A1A
   68    72     1     0     0
SMALL
No Charge or Current Charge


@<TRIPOS>ATOM
      1 N1          47.0030    13.8890    59.9280 nh         1 A1A      -0.796300
      2 C4          51.3540    11.8740    57.9840 ce         1 A1A      -0.059400
      3 C5          52.8140    11.6530    57.7780 ca         1 A1A      -0.077800
      4 C6          53.5340    12.4550    56.8690 ca         1 A1A      -0.055000
      5 C7          54.9100    12.2410    56.6720 ca         1 A1A      -0.179000
      6 C8          55.5730    11.2250    57.3740 ca         1 A1A       0.148100
      7 C10         53.4860    10.6270    58.4730 ca         1 A1A      -0.055000
      8 C13         52.0760    11.9380    61.0970 ca         1 A1A      -0.055500
      9 C15         51.5320    10.8400    63.1990 ca         1 A1A       0.138100
     10 C17         50.0640    10.5850    61.2750 ca         1 A1A      -0.055500
     11 C20         44.5830    14.1510    60.8510 c3         1 A1A       0.194000
     12 C21         43.2280    13.4080    60.8990 c3         1 A1A      -0.118100
     13 C22         44.4070    15.5450    60.2030 c3         1 A1A      -0.118100
     14 C24         48.2350    15.5590    61.2810 ca         1 A1A      -0.062000
     15 C26         49.3930    14.8550    63.3090 ca         1 A1A       0.151100
     16 C28         48.9160    13.5430    63.1130 ca         1 A1A      -0.167000
     17 C1          49.2350    13.6550    58.5210 c5         1 A1A      -0.352700
     18 C11         50.5830    11.7110    59.1030 cf         1 A1A      -0.087400
     19 C12         50.9160    11.4020    60.5050 ca         1 A1A      -0.072800
     20 C14         52.3800    11.6590    62.4410 ca         1 A1A      -0.180000
     21 C16         50.3740    10.3010    62.6180 ca         1 A1A      -0.180000
     22 C18         49.1660    12.1060    58.6430 c5         1 A1A       0.218500
     23 C19         45.6510    13.2850    60.1020 c3         1 A1A       0.215800
     24 C2          50.0730    13.8190    57.1920 c5         1 A1A      -0.069400
     25 C23         47.7740    14.2440    61.0600 ca         1 A1A       0.205000
     26 C25         49.0390    15.8590    62.3960 ca         1 A1A      -0.167000
     27 C27         50.6920    14.2260    65.3090 c3         1 A1A       0.145900
     28 C29         48.1090    13.2490    61.9990 ca         1 A1A      -0.062000
     29 C3          50.3860    12.3200    56.8720 c5         1 A1A       0.179500
     30 C9          54.8620    10.4160    58.2740 ca         1 A1A      -0.179000
     31 F1          44.9770    14.3390    62.1360 f          1 A1A      -0.267000
     32 O1          47.5090    15.7900    58.2280 o          1 A1A      -0.530000
     33 O2          56.9060    11.0270    57.1750 oh         1 A1A      -0.530100
     34 O4          49.1710    11.6940    57.2790 os         1 A1A      -0.404000
     35 S1          47.5040    14.3260    58.3150 s6         1 A1A       1.226100
     36 H6          53.0330    13.2490    56.3200 ha         1 A1A       0.118500
     37 H7          55.4600    12.8660    55.9730 ha         1 A1A       0.123000
     38 H10         52.9410     9.9870    59.1620 ha         1 A1A       0.118500
     39 H11         52.7340    12.5830    60.5190 ha         1 A1A       0.121000
     40 H15         49.1680    10.1580    60.8320 ha         1 A1A       0.121000
     41 H20         43.3370    12.4330    61.3890 hc         1 A1A       0.051867
     42 H18         42.4860    13.9870    61.4610 hc         1 A1A       0.051867
     43 H19         42.8380    13.2420    59.8880 hc         1 A1A       0.051867
     44 H23         43.6320    16.1210    60.7240 hc         1 A1A       0.051867
     45 H22         45.3380    16.1200    60.2510 hc         1 A1A       0.051867
     46 H21         44.1150    15.4510    59.1510 hc         1 A1A       0.051867
     47 H24         47.9690    16.3590    60.5990 ha         1 A1A       0.127500
     48 H29         49.1620    12.7430    63.8030 ha         1 A1A       0.127000
     49 H1          49.6940    14.1470    59.3830 h1         1 A1A       0.118700
     50 H12         53.2750    12.0790    62.8930 ha         1 A1A       0.123500
     51 H14         49.7090     9.6650    63.1970 ha         1 A1A       0.123500
     52 H3          48.3320    11.6810    59.2190 h1         1 A1A       0.100700
     53 H16         45.2160    13.0120    59.1330 h1         1 A1A       0.067700
     54 H17         45.7550    12.3360    60.6430 h1         1 A1A       0.067700
     55 H5          50.9830    14.4130    57.3380 hc         1 A1A       0.071200
     56 H4          49.5070    14.2870    56.3770 hc         1 A1A       0.071200
     57 H25         49.3920    16.8750    62.5500 ha         1 A1A       0.127000
     58 H28         51.3280    14.7090    66.0620 h1         1 A1A       0.043700
     59 H26         49.8630    13.7330    65.8320 h1         1 A1A       0.043700
     60 H27         51.2910    13.4630    64.7970 h1         1 A1A       0.043700
     61 H30         47.7590    12.2320    61.8510 ha         1 A1A       0.127500
     62 H2          50.6750    12.0800    55.8390 h1         1 A1A       0.106700
     63 H9          55.3650     9.6210    58.8190 ha         1 A1A       0.123000
     64 H8          57.1960    10.2820    57.7420 ho         1 A1A       0.467000
     65 H13         51.1650     9.9520    64.8550 ho         1 A1A       0.467000
     66 O5          50.2010    15.2020    64.3730 os         1 A1A      -0.337100
     67 O3          51.8370    10.5730    64.5000 oh         1 A1A      -0.535100
     68 O6          46.7250    13.5280    57.3620 o          1 A1A      -0.530000
@<TRIPOS>BOND
     1     1    23 1   
     2     1    25 1   
     3     1    35 1   
     4     2     3 1   
     5     2    18 2   
     6     2    29 1   
     7     3     4 ar  
     8     3     7 ar  
     9     4     5 ar  
    10     4    36 1   
    11     5     6 ar  
    12     5    37 1   
    13     6    30 ar  
    14     6    33 1   
    15     7    30 ar  
    16     7    38 1   
    17     8    19 ar  
    18     8    20 ar  
    19     8    39 1   
    20     9    20 ar  
    21     9    21 ar  
    22     9    67 1   
    23    10    19 ar  
    24    10    21 ar  
    25    10    40 1   
    26    11    12 1   
    27    11    13 1   
    28    11    23 1   
    29    11    31 1   
    30    12    41 1   
    31    12    42 1   
    32    12    43 1   
    33    13    44 1   
    34    13    45 1   
    35    13    46 1   
    36    14    25 ar  
    37    14    26 ar  
    38    14    47 1   
    39    15    16 ar  
    40    15    26 ar  
    41    15    66 1   
    42    16    28 ar  
    43    16    48 1   
    44    17    22 1   
    45    17    24 1   
    46    17    35 1   
    47    17    49 1   
    48    18    19 1   
    49    18    22 1   
    50    20    50 1   
    51    21    51 1   
    52    22    34 1   
    53    22    52 1   
    54    23    53 1   
    55    23    54 1   
    56    24    29 1   
    57    24    55 1   
    58    24    56 1   
    59    25    28 ar  
    60    26    57 1   
    61    27    58 1   
    62    27    59 1   
    63    27    60 1   
    64    27    66 1   
    65    28    61 1   
    66    29    34 1   
    67    29    62 1   
    68    30    63 1   
    69    32    35 2   
    70    33    64 1   
    71    35    68 2   
    72    65    67 1   
@<TRIPOS>SUBSTRUCTURE
     1 A1A         1 TEMP              0 ****  ****    0 ROOT
