@<TRIPOS>MOLECULE
A1A
   50    52     1     0     0
SMALL
No Charge or Current Charge


@<TRIPOS>ATOM
      1 C10        132.2780   131.6500   139.9930 c5         1 A1A       0.190300
      2 C13        131.9110   131.7190   136.9030 c3         1 A1A      -0.070400
      3 C15        128.2110   134.4110   144.0530 c          1 A1A       0.615700
      4 C20        127.6740   136.6770   142.9610 ca         1 A1A      -0.069500
      5 C21        126.6380   136.1030   145.0860 ca         1 A1A      -0.069500
      6 C22        125.9670   137.3370   145.0890 ca         1 A1A       0.115000
      7 C24        126.1450   138.2420   144.0340 ca         1 A1A      -0.082000
      8 C06        131.8870   133.6090   141.4060 cx         1 A1A      -0.128200
      9 C07        131.8710   132.1100   141.4070 cx         1 A1A      -0.128200
     10 C08        130.5620   132.8730   141.5420 cx         1 A1A      -0.127700
     11 C09        132.3090   134.0570   139.9920 c5         1 A1A       0.190300
     12 C11        129.8060   132.8840   142.8610 c3         1 A1A       0.126000
     13 C14        132.3450   131.7330   135.4010 c3         1 A1A      -0.046000
     14 C16        133.8900   131.6410   135.2720 c3         1 A1A      -0.083767
     15 C18        131.7140   130.5020   134.6970 c3         1 A1A      -0.083767
     16 C19        127.5030   135.7510   144.0220 ca         1 A1A      -0.134600
     17 C23        126.9980   137.9100   142.9730 ca         1 A1A       0.115000
     18 N04        131.9490   132.8590   139.1760 n3         1 A1A      -0.742600
     19 N05        129.0390   134.1200   142.9930 ns         1 A1A      -0.497900
     20 O03        128.0610   133.6170   144.9720 o          1 A1A      -0.597100
     21 Cl2        127.2250   139.0430   141.6460 cl         1 A1A      -0.185000
     22 H1         131.7200   130.7640   139.6610 h1         1 A1A       0.042450
     23 H2         133.3500   131.4130   139.9390 h1         1 A1A       0.042450
     24 H3         130.8160   131.7390   136.9560 hc         1 A1A       0.044700
     25 H4         132.2230   130.7650   137.3440 hc         1 A1A       0.044700
     26 H5         132.3310   133.9160   135.0890 hc         1 A1A       0.032811
     27 H6         132.0610   132.9800   133.6150 hc         1 A1A       0.032811
     28 H7         130.7600   133.1370   134.8090 hc         1 A1A       0.032811
     29 H8         128.3250   136.4610   142.1190 ha         1 A1A       0.144000
     30 H9         126.4820   135.4190   145.9170 ha         1 A1A       0.144000
     31 H10        125.6250   139.1960   144.0380 ha         1 A1A       0.146000
     32 H11        132.2810   134.1300   142.2760 hc         1 A1A       0.099700
     33 H12        132.2570   131.5830   142.2770 hc         1 A1A       0.099700
     34 H13        129.8850   132.8740   140.6900 hc         1 A1A       0.097700
     35 H14        133.3870   134.2620   139.9420 h1         1 A1A       0.042450
     36 H15        131.7780   134.9570   139.6520 h1         1 A1A       0.042450
     37 H16        129.1200   132.0270   142.9000 h1         1 A1A       0.060200
     38 H17        130.5070   132.8060   143.7020 h1         1 A1A       0.060200
     39 H18        133.5530   132.8280   137.8000 h1         1 A1A       0.030200
     40 H19        132.1770   133.8280   137.3230 h1         1 A1A       0.030200
     41 H20        134.3800   132.5300   135.6860 hc         1 A1A       0.032811
     42 H21        134.2750   130.7610   135.8020 hc         1 A1A       0.032811
     43 H22        134.1890   131.5590   134.2200 hc         1 A1A       0.032811
     44 H23        132.0520   129.5670   135.1630 hc         1 A1A       0.032811
     45 H24        130.6190   130.5330   134.7580 hc         1 A1A       0.032811
     46 H25        131.9920   130.4680   133.6370 hc         1 A1A       0.032811
     47 H27        129.1270   134.8160   142.2660 hn         1 A1A       0.317500
     48 C12        132.4560   132.8730   137.7860 c3         1 A1A       0.179800
     49 Cl1        124.8970   137.7490   146.4240 cl         1 A1A      -0.185000
     50 C17        131.8440   133.0190   134.6890 c3         1 A1A      -0.083767
@<TRIPOS>BOND
     1     1     9 1   
     2     1    18 1   
     3     1    22 1   
     4     1    23 1   
     5     2    13 1   
     6     2    24 1   
     7     2    25 1   
     8     2    48 1   
     9     3    16 1   
    10     3    19 1   
    11     3    20 2   
    12     4    16 ar  
    13     4    17 ar  
    14     4    29 1   
    15     5     6 ar  
    16     5    16 ar  
    17     5    30 1   
    18     6     7 ar  
    19     6    49 1   
    20     7    17 ar  
    21     7    31 1   
    22     8     9 1   
    23     8    10 1   
    24     8    11 1   
    25     8    32 1   
    26     9    10 1   
    27     9    33 1   
    28    10    12 1   
    29    10    34 1   
    30    11    18 1   
    31    11    35 1   
    32    11    36 1   
    33    12    19 1   
    34    12    37 1   
    35    12    38 1   
    36    13    14 1   
    37    13    15 1   
    38    13    50 1   
    39    14    41 1   
    40    14    42 1   
    41    14    43 1   
    42    15    44 1   
    43    15    45 1   
    44    15    46 1   
    45    17    21 1   
    46    18    48 1   
    47    19    47 1   
    48    26    50 1   
    49    27    50 1   
    50    28    50 1   
    51    39    48 1   
    52    40    48 1   
@<TRIPOS>SUBSTRUCTURE
     1 A1A         1 TEMP              0 ****  ****    0 ROOT
