@<TRIPOS>MOLECULE
A1A
  144   144     1     0     0
SMALL
abcg2


@<TRIPOS>ATOM
      1 C           38.9530    32.7820   -21.1460 c3         1 A1A      -0.072400
      2 C1          39.4150    33.8580   -22.1250 c3         1 A1A      -0.073400
      3 C2          39.5170    35.2560   -21.5240 c3         1 A1A      -0.077400
      4 C3          39.9790    36.2940   -22.5410 c3         1 A1A      -0.074400
      5 C4          40.2840    37.6680   -21.9500 c3         1 A1A      -0.072400
      6 C5          39.0900    38.3280   -21.2730 c3         1 A1A      -0.079400
      7 C6          39.3400    39.7750   -20.8620 c3         1 A1A      -0.074400
      8 C7          38.1820    40.3680   -20.0600 c3         1 A1A      -0.074400
      9 C8          38.1660    39.9140   -18.6020 c3         1 A1A      -0.075400
     10 C9          36.8650    40.2290   -17.8650 c3         1 A1A      -0.073400
     11 C10         35.7180    39.3020   -18.2510 c3         1 A1A      -0.076400
     12 C11         34.4150    39.6070   -17.5230 c3         1 A1A      -0.073400
     13 C12         33.3160    38.6070   -17.8540 c3         1 A1A      -0.076400
     14 C13         31.9740    38.9160   -17.2040 c3         1 A1A      -0.072400
     15 C14         30.9250    37.8530   -17.5080 c3         1 A1A      -0.079400
     16 C15         29.5240    38.2190   -17.0330 c3         1 A1A      -0.063400
     17 C16         28.4830    37.1790   -17.4320 c3         1 A1A      -0.155400
     18 C17         28.6320    35.8730   -16.6820 c          1 A1A       0.605100
     19 O           28.9710    35.8560   -15.5080 o          1 A1A      -0.599100
     20 N           28.3470    34.7120   -17.3230 ns         1 A1A      -0.516900
     21 C18         27.8950    34.5020   -18.6820 c3         1 A1A      -0.014300
     22 C19         26.3760    34.3640   -18.7230 c3         1 A1A       0.159600
     23 O1          25.8960    34.3230   -20.0460 os         1 A1A      -0.445000
     24 C20         25.4750    33.1120   -20.5620 c6         1 A1A       0.405300
     25 C21         24.1600    33.3240   -21.3060 c6         1 A1A       0.145300
     26 O27         23.2100    33.7650   -20.3750 oh         1 A1A      -0.689000
     27 C22         23.7470    32.0330   -22.0060 c6         1 A1A       0.139300
     28 O26         23.4140    31.0810   -21.0250 oh         1 A1A      -0.644000
     29 O2          26.4580    32.6780   -21.4680 os         1 A1A      -0.476000
     30 C24         26.1840    31.4310   -22.0800 c6         1 A1A       0.159300
     31 C25         27.3640    31.0710   -22.9570 c3         1 A1A       0.169600
     32 O3          28.4940    30.8270   -22.1550 oh         1 A1A      -0.700000
     33 C23         24.8880    31.5420   -22.8960 c6         1 A1A       0.100300
     34 O4          24.4950    30.2950   -23.4240 oh         1 A1A      -0.724000
     35 C54         28.6220    33.2520   -19.1960 c          1 A1A       0.582100
     36 O28         28.2850    32.1610   -18.8000 o          1 A1A      -0.506100
     37 C55         29.7860    33.4760   -20.1160 c3         1 A1A      -0.170400
     38 C56         30.9220    34.2300   -19.4160 c3         1 A1A      -0.073400
     39 C57         32.1440    34.4110   -20.3080 c3         1 A1A      -0.074400
     40 C58         33.2420    35.1930   -19.5960 c3         1 A1A      -0.077400
     41 C59         34.5230    35.3810   -20.4000 c3         1 A1A      -0.077400
     42 C60         34.3630    36.2100   -21.6670 c3         1 A1A      -0.076400
     43 C61         35.6880    36.4140   -22.3930 c3         1 A1A      -0.076400
     44 C62         35.5820    37.2220   -23.6820 c3         1 A1A      -0.072400
     45 C63         34.8270    36.5120   -24.7990 c3         1 A1A      -0.075400
     46 C64         34.7250    37.3340   -26.0770 c3         1 A1A      -0.076400
     47 C65         33.9590    36.6210   -27.1830 c3         1 A1A      -0.075400
     48 C66         33.8280    37.4530   -28.4540 c3         1 A1A      -0.072400
     49 C67         33.1320    36.7340   -29.6060 c3         1 A1A      -0.073400
     50 C68         31.6680    36.3980   -29.3460 c3         1 A1A      -0.076400
     51 C69         30.9980    35.7410   -30.5450 c3         1 A1A      -0.090100
     52 C70         35.5810    31.8700   -19.3920 c3         1 A1A      -0.076400
     53 C71         37.0510    31.7870   -19.7850 c3         1 A1A      -0.076400
     54 C72         37.4980    32.9120   -20.7110 c3         1 A1A      -0.076400
     55 C73         35.1450    30.7370   -18.4740 c3         1 A1A      -0.089100
     56 HC3         39.0920    31.8000   -21.6090 hc         1 A1A       0.037200
     57 HC2         39.6010    32.7910   -20.2620 hc         1 A1A       0.037200
     58 H11         40.3940    33.5790   -22.5260 hc         1 A1A       0.036200
     59 H12         38.7340    33.8800   -22.9840 hc         1 A1A       0.036200
     60 H22         38.5500    35.5540   -21.1090 hc         1 A1A       0.039200
     61 H21         40.2150    35.2340   -20.6790 hc         1 A1A       0.039200
     62 H31         40.8750    35.9220   -23.0480 hc         1 A1A       0.036200
     63 H32         39.2130    36.3990   -23.3180 hc         1 A1A       0.036200
     64 H41         41.1050    37.5800   -21.2290 hc         1 A1A       0.036700
     65 H42         40.6510    38.3220   -22.7480 hc         1 A1A       0.036700
     66 H52         38.2300    38.3030   -21.9530 hc         1 A1A       0.038200
     67 H51         38.7940    37.7430   -20.3970 hc         1 A1A       0.038200
     68 H61         40.2640    39.8420   -20.2760 hc         1 A1A       0.037200
     69 H62         39.5110    40.3710   -21.7640 hc         1 A1A       0.037200
     70 H71         38.2320    41.4610   -20.0840 hc         1 A1A       0.038200
     71 H72         37.2420    40.1010   -20.5540 hc         1 A1A       0.038200
     72 H82         38.3460    38.8350   -18.5410 hc         1 A1A       0.037700
     73 H81         39.0060    40.3860   -18.0850 hc         1 A1A       0.037700
     74 H91         37.0310    40.1480   -16.7870 hc         1 A1A       0.037700
     75 H92         36.5790    41.2700   -18.0480 hc         1 A1A       0.037700
     76 H102        35.5440    39.3450   -19.3310 hc         1 A1A       0.037200
     77 H101        36.0170    38.2680   -18.0380 hc         1 A1A       0.037200
     78 H112        34.5910    39.6090   -16.4420 hc         1 A1A       0.037700
     79 H111        34.0810    40.6180   -17.7780 hc         1 A1A       0.037700
     80 H121        33.1830    38.5630   -18.9410 hc         1 A1A       0.036700
     81 H122        33.6440    37.6050   -17.5530 hc         1 A1A       0.036700
     82 H132        32.0990    39.0080   -16.1200 hc         1 A1A       0.039200
     83 H131        31.6180    39.8910   -17.5540 hc         1 A1A       0.039200
     84 H141        30.8960    37.6770   -18.5890 hc         1 A1A       0.039200
     85 H142        31.2360    36.9060   -17.0560 hc         1 A1A       0.039200
     86 H152        29.5150    38.3660   -15.9510 hc         1 A1A       0.051700
     87 H151        29.2350    39.1750   -17.4770 hc         1 A1A       0.051700
     88 H162        27.4770    37.5490   -17.2080 hc         1 A1A       0.059700
     89 H161        28.5140    37.0450   -18.5140 hc         1 A1A       0.059700
     90 HN1         28.3630    33.8940   -16.7290 hn         1 A1A       0.322500
     91 H181        28.1850    35.3540   -19.2950 h1         1 A1A       0.079700
     92 H192        25.9450    35.2450   -18.2390 h1         1 A1A       0.062200
     93 H191        26.0600    33.4870   -18.1480 h1         1 A1A       0.062200
     94 H201        25.3380    32.3680   -19.7610 h2         1 A1A       0.068700
     95 H211        24.3410    34.0770   -22.0880 h1         1 A1A       0.050700
     96 H271        22.3970    33.9820   -20.8420 ho         1 A1A       0.506000
     97 H221        22.8800    32.2440   -22.6520 h1         1 A1A       0.038700
     98 H261        23.1730    30.2630   -21.4730 ho         1 A1A       0.461000
     99 H241        26.0520    30.6500   -21.3160 h1         1 A1A       0.080700
    100 H251        27.5350    31.8870   -23.6720 h1         1 A1A       0.022200
    101 H252        27.0970    30.1820   -23.5410 h1         1 A1A       0.022200
    102 H33         29.2390    30.6450   -22.7350 ho         1 A1A       0.502000
    103 H231        25.0420    32.2850   -23.6910 h1         1 A1A       0.046700
    104 H43         24.8790    30.1750   -24.2970 ho         1 A1A       0.514000
    105 H551        30.1410    32.5140   -20.4870 hc         1 A1A       0.072700
    106 H552        29.4410    34.0620   -20.9740 hc         1 A1A       0.072700
    107 H561        30.5770    35.2170   -19.0950 hc         1 A1A       0.044700
    108 H562        31.2130    33.6940   -18.5080 hc         1 A1A       0.044700
    109 H571        32.5260    33.4320   -20.6160 hc         1 A1A       0.039200
    110 H572        31.8440    34.9280   -21.2250 hc         1 A1A       0.039200
    111 H581        32.8510    36.1750   -19.3110 hc         1 A1A       0.040700
    112 H582        33.4840    34.6820   -18.6580 hc         1 A1A       0.040700
    113 H591        35.2740    35.8570   -19.7590 hc         1 A1A       0.039200
    114 H592        34.9340    34.4010   -20.6630 hc         1 A1A       0.039200
    115 H601        33.6440    35.7260   -22.3340 hc         1 A1A       0.038200
    116 H602        33.9330    37.1860   -21.4130 hc         1 A1A       0.038200
    117 H612        36.3850    36.9160   -21.7130 hc         1 A1A       0.039200
    118 H611        36.1380    35.4380   -22.6120 hc         1 A1A       0.039200
    119 H622        35.0990    38.1830   -23.4680 hc         1 A1A       0.037700
    120 H621        36.5900    37.4640   -24.0350 hc         1 A1A       0.037700
    121 H631        35.3220    35.5590   -25.0180 hc         1 A1A       0.036700
    122 H632        33.8160    36.2560   -24.4660 hc         1 A1A       0.036700
    123 H642        34.2350    38.2880   -25.8540 hc         1 A1A       0.036700
    124 H641        35.7300    37.5860   -26.4320 hc         1 A1A       0.036700
    125 H651        34.4590    35.6750   -27.4210 hc         1 A1A       0.036700
    126 H652        32.9670    36.3510   -26.8080 hc         1 A1A       0.036700
    127 H662        33.2900    38.3790   -28.2250 hc         1 A1A       0.037200
    128 H661        34.8280    37.7580   -28.7790 hc         1 A1A       0.037200
    129 H671        33.1940    37.3580   -30.5040 hc         1 A1A       0.037200
    130 H672        33.6770    35.8130   -29.8420 hc         1 A1A       0.037200
    131 H682        31.5830    35.7350   -28.4800 hc         1 A1A       0.036700
    132 H681        31.1300    37.3130   -29.0800 hc         1 A1A       0.036700
    133 H693        29.9560    35.4940   -30.3390 hc         1 A1A       0.030367
    134 H691        31.0160    36.3980   -31.4170 hc         1 A1A       0.030367
    135 H692        31.5080    34.8160   -30.8220 hc         1 A1A       0.030367
    136 H702        35.3870    32.8300   -18.9050 hc         1 A1A       0.036200
    137 H701        34.9650    31.8650   -20.2980 hc         1 A1A       0.036200
    138 H711        37.6690    31.7950   -18.8800 hc         1 A1A       0.036700
    139 H712        37.2400    30.8230   -20.2700 hc         1 A1A       0.036700
    140 H721        37.3360    33.8730   -20.2140 hc         1 A1A       0.037200
    141 H722        36.8580    32.9240   -21.6020 hc         1 A1A       0.037200
    142 H733        34.0890    30.8150   -18.2150 hc         1 A1A       0.032033
    143 H731        35.2980    29.7650   -18.9460 hc         1 A1A       0.032033
    144 H732        35.7150    30.7420   -17.5430 hc         1 A1A       0.032033
@<TRIPOS>BOND
     1     1     2 1   
     2     1    54 1   
     3     1    56 1   
     4     1    57 1   
     5     2     3 1   
     6     2    58 1   
     7     2    59 1   
     8     3     4 1   
     9     3    60 1   
    10     3    61 1   
    11     4     5 1   
    12     4    62 1   
    13     4    63 1   
    14     5     6 1   
    15     5    64 1   
    16     5    65 1   
    17     6     7 1   
    18     6    66 1   
    19     6    67 1   
    20     7     8 1   
    21     7    68 1   
    22     7    69 1   
    23     8     9 1   
    24     8    70 1   
    25     8    71 1   
    26     9    10 1   
    27     9    72 1   
    28     9    73 1   
    29    10    11 1   
    30    10    74 1   
    31    10    75 1   
    32    11    12 1   
    33    11    76 1   
    34    11    77 1   
    35    12    13 1   
    36    12    78 1   
    37    12    79 1   
    38    13    14 1   
    39    13    80 1   
    40    13    81 1   
    41    14    15 1   
    42    14    82 1   
    43    14    83 1   
    44    15    16 1   
    45    15    84 1   
    46    15    85 1   
    47    16    17 1   
    48    16    86 1   
    49    16    87 1   
    50    17    18 1   
    51    17    88 1   
    52    17    89 1   
    53    18    19 2   
    54    18    20 1   
    55    20    21 1   
    56    20    90 1   
    57    21    22 1   
    58    21    35 1   
    59    21    91 1   
    60    22    23 1   
    61    22    92 1   
    62    22    93 1   
    63    23    24 1   
    64    24    25 1   
    65    24    29 1   
    66    24    94 1   
    67    25    26 1   
    68    25    27 1   
    69    25    95 1   
    70    26    96 1   
    71    27    28 1   
    72    27    33 1   
    73    27    97 1   
    74    28    98 1   
    75    29    30 1   
    76    30    31 1   
    77    30    33 1   
    78    30    99 1   
    79    31    32 1   
    80    31   100 1   
    81    31   101 1   
    82    32   102 1   
    83    33    34 1   
    84    33   103 1   
    85    34   104 1   
    86    35    36 2   
    87    35    37 1   
    88    37    38 1   
    89    37   105 1   
    90    37   106 1   
    91    38    39 1   
    92    38   107 1   
    93    38   108 1   
    94    39    40 1   
    95    39   109 1   
    96    39   110 1   
    97    40    41 1   
    98    40   111 1   
    99    40   112 1   
   100    41    42 1   
   101    41   113 1   
   102    41   114 1   
   103    42    43 1   
   104    42   115 1   
   105    42   116 1   
   106    43    44 1   
   107    43   117 1   
   108    43   118 1   
   109    44    45 1   
   110    44   119 1   
   111    44   120 1   
   112    45    46 1   
   113    45   121 1   
   114    45   122 1   
   115    46    47 1   
   116    46   123 1   
   117    46   124 1   
   118    47    48 1   
   119    47   125 1   
   120    47   126 1   
   121    48    49 1   
   122    48   127 1   
   123    48   128 1   
   124    49    50 1   
   125    49   129 1   
   126    49   130 1   
   127    50    51 1   
   128    50   131 1   
   129    50   132 1   
   130    51   133 1   
   131    51   134 1   
   132    51   135 1   
   133    52    53 1   
   134    52    55 1   
   135    52   136 1   
   136    52   137 1   
   137    53    54 1   
   138    53   138 1   
   139    53   139 1   
   140    54   140 1   
   141    54   141 1   
   142    55   142 1   
   143    55   143 1   
   144    55   144 1   
@<TRIPOS>SUBSTRUCTURE
     1 A1A         1 TEMP              0 ****  ****    0 ROOT
