@<TRIPOS>MOLECULE
A1A
   63    68     1     0     0
SMALL
abcg2


@<TRIPOS>ATOM
      1 N1         -27.8390   -36.9580    -3.5780 nh         1 A1A      -0.780300
      2 C4         -23.0940   -39.0100    -3.5190 ce         1 A1A      -0.072400
      3 C5         -21.8840   -39.4900    -4.1730 ca         1 A1A      -0.074800
      4 C6         -20.7730   -39.9140    -3.4410 ca         1 A1A      -0.056500
      5 C7         -19.6270   -40.3670    -4.0670 ca         1 A1A      -0.179000
      6 C8         -19.5580   -40.4090    -5.4600 ca         1 A1A       0.146100
      7 C10        -21.8080   -39.5660    -5.5670 ca         1 A1A      -0.056500
      8 C13        -21.1940   -37.0670    -1.8870 ca         1 A1A      -0.051500
      9 C15        -20.5550   -36.5200     0.3680 ca         1 A1A       0.149100
     10 C17        -22.5810   -37.7420    -0.0610 ca         1 A1A      -0.051500
     11 C20        -29.1840   -38.9860    -3.0950 c6         1 A1A      -0.084400
     12 C21        -28.4910   -39.5310    -4.3390 c6         1 A1A      -0.034100
     13 C22        -28.2560   -37.1340    -4.9260 ca         1 A1A       0.233000
     14 C24        -28.9210   -38.6600    -6.6660 ca         1 A1A      -0.139000
     15 C26        -29.5370   -36.9020    -9.7800 c3         1 A1A       0.147900
     16 C28        -28.4680   -36.0760    -5.7990 ca         1 A1A      -0.066000
     17 C1         -24.9940   -36.9350    -3.3330 c5         1 A1A      -0.347700
     18 C11        -23.2800   -38.3400    -2.3690 cf         1 A1A      -0.071400
     19 C12        -22.3400   -37.7240    -1.4370 ca         1 A1A      -0.083800
     20 C14        -20.3100   -36.4720    -1.0040 ca         1 A1A      -0.179500
     21 C16        -21.7020   -37.1580     0.8350 ca         1 A1A      -0.179500
     22 C18        -24.7790   -38.0850    -2.3130 c5         1 A1A       0.214500
     23 C19        -28.4030   -37.8180    -2.5130 c6         1 A1A       0.235800
     24 C2         -24.8310   -37.6840    -4.6680 c5         1 A1A      -0.073400
     25 C23        -28.5210   -38.4390    -5.3620 ca         1 A1A      -0.060300
     26 C25        -29.0510   -37.6030    -7.5680 ca         1 A1A       0.139100
     27 C27        -28.8370   -36.3040    -7.1200 ca         1 A1A      -0.189000
     28 C3         -24.4800   -39.0980    -4.1410 c5         1 A1A       0.180500
     29 C9         -20.6640   -40.0100    -6.2070 ca         1 A1A      -0.179000
     30 O1         -26.6970   -35.7010    -1.7570 o          1 A1A      -0.534000
     31 O2         -18.4650   -40.8270    -6.1240 oh         1 A1A      -0.530100
     32 O4         -25.3110   -39.1960    -2.9970 os         1 A1A      -0.432000
     33 O5         -29.4100   -37.9320    -8.8230 os         1 A1A      -0.340100
     34 S1         -26.5380   -36.0170    -3.1710 s6         1 A1A       1.218100
     35 H6         -20.8050   -39.9040    -2.3590 ha         1 A1A       0.119000
     36 H7         -18.7830   -40.6950    -3.4700 ha         1 A1A       0.122500
     37 H10        -22.6510   -39.2600    -6.1760 ha         1 A1A       0.119000
     38 H11        -20.9910   -37.0110    -2.9490 ha         1 A1A       0.119500
     39 H15        -23.4650   -38.2350     0.3240 ha         1 A1A       0.119500
     40 H18        -30.1980   -38.6790    -3.3560 hc         1 A1A       0.054200
     41 H19        -29.2740   -39.7490    -2.3200 hc         1 A1A       0.054200
     42 H21        -28.9980   -40.4200    -4.7140 hc         1 A1A       0.062200
     43 H20        -27.4660   -39.8180    -4.0950 hc         1 A1A       0.062200
     44 H22        -29.1430   -39.6690    -6.9940 ha         1 A1A       0.128000
     45 H23        -29.7960   -37.3820   -10.7210 h1         1 A1A       0.041700
     46 H24        -30.3290   -36.1940    -9.5190 h1         1 A1A       0.041700
     47 H25        -28.6030   -36.3490    -9.9120 h1         1 A1A       0.041700
     48 H27        -28.3500   -35.0560    -5.4690 ha         1 A1A       0.145000
     49 H1         -24.2550   -36.1420    -3.1900 h1         1 A1A       0.119700
     50 H12        -19.4300   -35.9650    -1.3850 ha         1 A1A       0.123500
     51 H14        -21.9030   -37.1930     1.8980 ha         1 A1A       0.123500
     52 H3         -25.2240   -37.9470    -1.3290 h1         1 A1A       0.116700
     53 H17        -27.5960   -38.2180    -1.9020 h1         1 A1A       0.056200
     54 H16        -29.0430   -37.2190    -1.8650 h1         1 A1A       0.056200
     55 H4         -24.0500   -37.2540    -5.2930 hc         1 A1A       0.069200
     56 H5         -25.7470   -37.7140    -5.2580 hc         1 A1A       0.069200
     57 H26        -28.9700   -35.4500    -7.7700 ha         1 A1A       0.123000
     58 H2         -24.6620   -39.9130    -4.8390 h1         1 A1A       0.103700
     59 H9         -20.6260   -40.0480    -7.2880 ha         1 A1A       0.122500
     60 H8         -17.7690   -41.0760    -5.5060 ho         1 A1A       0.467000
     61 H13        -18.9750   -35.5540     0.8420 ho         1 A1A       0.467000
     62 O3         -19.7290   -35.9680     1.2750 oh         1 A1A      -0.530100
     63 O6         -26.4300   -34.9330    -4.1340 o          1 A1A      -0.534000
@<TRIPOS>BOND
     1     1    13 1   
     2     1    23 1   
     3     1    34 1   
     4     2     3 1   
     5     2    18 2   
     6     2    28 1   
     7     3     4 ar  
     8     3     7 ar  
     9     4     5 ar  
    10     4    35 1   
    11     5     6 ar  
    12     5    36 1   
    13     6    29 ar  
    14     6    31 1   
    15     7    29 ar  
    16     7    37 1   
    17     8    19 ar  
    18     8    20 ar  
    19     8    38 1   
    20     9    20 ar  
    21     9    21 ar  
    22     9    62 1   
    23    10    19 ar  
    24    10    21 ar  
    25    10    39 1   
    26    11    12 1   
    27    11    23 1   
    28    11    40 1   
    29    11    41 1   
    30    12    25 1   
    31    12    42 1   
    32    12    43 1   
    33    13    16 ar  
    34    13    25 ar  
    35    14    25 ar  
    36    14    26 ar  
    37    14    44 1   
    38    15    33 1   
    39    15    45 1   
    40    15    46 1   
    41    15    47 1   
    42    16    27 ar  
    43    16    48 1   
    44    17    22 1   
    45    17    24 1   
    46    17    34 1   
    47    17    49 1   
    48    18    19 1   
    49    18    22 1   
    50    20    50 1   
    51    21    51 1   
    52    22    32 1   
    53    22    52 1   
    54    23    53 1   
    55    23    54 1   
    56    24    28 1   
    57    24    55 1   
    58    24    56 1   
    59    26    27 ar  
    60    26    33 1   
    61    27    57 1   
    62    28    32 1   
    63    28    58 1   
    64    29    59 1   
    65    30    34 2   
    66    31    60 1   
    67    34    63 2   
    68    61    62 1   
@<TRIPOS>SUBSTRUCTURE
     1 A1A         1 TEMP              0 ****  ****    0 ROOT
