@<TRIPOS>MOLECULE
A1A
   72    77     1     0     0
SMALL
abcg2


@<TRIPOS>ATOM
      1 N1         -27.6520   -38.1190   -10.3890 nh         1 A1A      -0.795300
      2 C2         -25.5850   -38.5780    -7.8300 c5         1 A1A      -0.067400
      3 C4         -23.9810   -40.4410    -7.7650 ce         1 A1A      -0.080400
      4 C5         -23.1860   -40.6220    -6.5540 ca         1 A1A      -0.077800
      5 C6         -23.6470   -41.4270    -5.5110 ca         1 A1A      -0.055000
      6 C1         -25.0970   -38.3690    -9.2730 c5         1 A1A      -0.340700
      7 O1         -25.5950   -37.4190   -11.6520 o          1 A1A      -0.537500
      8 S1         -26.1740   -37.3810   -10.3150 s6         1 A1A       1.218100
      9 C3         -25.4660   -40.1190    -7.7280 c5         1 A1A       0.180500
     10 O4         -25.9030   -40.5210    -9.0130 os         1 A1A      -0.425000
     11 O5         -29.0700   -40.5730   -15.1780 os         1 A1A      -0.339100
     12 O6         -26.3180   -36.0960    -9.6410 o          1 A1A      -0.537500
     13 C7         -22.9170   -41.5880    -4.3450 ca         1 A1A      -0.180000
     14 C8         -21.7020   -40.9260    -4.1870 ca         1 A1A       0.147100
     15 C9         -21.2340   -40.1030    -5.2120 ca         1 A1A      -0.180000
     16 C10        -21.9700   -39.9580    -6.3730 ca         1 A1A      -0.055000
     17 C11        -23.6300   -40.2920    -9.0550 cf         1 A1A      -0.064400
     18 C12        -22.3520   -40.4010    -9.7450 ca         1 A1A      -0.081800
     19 C13        -22.0930   -39.6490   -10.8950 ca         1 A1A      -0.055000
     20 C14        -20.8920   -39.7540   -11.5740 ca         1 A1A      -0.179000
     21 C15        -19.9110   -40.6350   -11.1250 ca         1 A1A       0.147100
     22 C16        -20.1600   -41.4080    -9.9910 ca         1 A1A      -0.179000
     23 C17        -21.3610   -41.2880    -9.3170 ca         1 A1A      -0.055000
     24 C18        -24.9090   -39.8400    -9.7430 c5         1 A1A       0.214500
     25 C19        -28.7090   -37.7190    -9.4390 c6         1 A1A       0.251500
     26 C20        -29.4210   -38.9440    -8.8540 c6         1 A1A      -0.084900
     27 C21        -30.7820   -38.5670    -8.2480 c6         1 A1A      -0.072900
     28 C22        -30.7820   -37.1350    -7.7310 c6         1 A1A      -0.078400
     29 C23        -30.5700   -36.1420    -8.8840 c6         1 A1A      -0.072900
     30 C24        -29.7210   -36.7370   -10.0190 c6         1 A1A      -0.084900
     31 C25        -28.0070   -38.7670   -11.6080 ca         1 A1A       0.218000
     32 C26        -27.9540   -40.1480   -11.7120 ca         1 A1A      -0.058000
     33 C27        -28.3050   -40.7940   -12.8910 ca         1 A1A      -0.170500
     34 C28        -28.7170   -40.0480   -13.9920 ca         1 A1A       0.152100
     35 C29        -29.0250   -41.9770   -15.3370 c3         1 A1A       0.147900
     36 C30        -28.7770   -38.6550   -13.8910 ca         1 A1A      -0.170500
     37 C31        -28.4240   -38.0270   -12.7150 ca         1 A1A      -0.058000
     38 H5         -24.9720   -38.0510    -7.1020 hc         1 A1A       0.065700
     39 H4         -26.6200   -38.2740    -7.6770 hc         1 A1A       0.065700
     40 H6         -24.5880   -41.9550    -5.6100 ha         1 A1A       0.119500
     41 H1         -24.1590   -37.8080    -9.3200 h1         1 A1A       0.116700
     42 H8         -21.3610   -41.6290    -2.4420 ho         1 A1A       0.466000
     43 H2         -26.0590   -40.5740    -6.9360 h1         1 A1A       0.099700
     44 H13        -18.1630   -41.3490   -11.4220 ho         1 A1A       0.466000
     45 H7         -23.2980   -42.2270    -3.5560 ha         1 A1A       0.123000
     46 H9         -20.2980   -39.5730    -5.0900 ha         1 A1A       0.123000
     47 H10        -21.5980   -39.3040    -7.1510 ha         1 A1A       0.119500
     48 H11        -22.8360   -38.9560   -11.2730 ha         1 A1A       0.123500
     49 H12        -20.7130   -39.1540   -12.4580 ha         1 A1A       0.124000
     50 H14        -19.4160   -42.1140    -9.6390 ha         1 A1A       0.124000
     51 H15        -21.5350   -41.9130    -8.4500 ha         1 A1A       0.123500
     52 H3         -24.9860   -40.0240   -10.8140 h1         1 A1A       0.118700
     53 H16        -28.2010   -37.2040    -8.6230 h1         1 A1A       0.062700
     54 H17        -29.5720   -39.6960    -9.6300 hc         1 A1A       0.049700
     55 H18        -28.7760   -39.3990    -8.0980 hc         1 A1A       0.049700
     56 H20        -31.5650   -38.6710    -9.0060 hc         1 A1A       0.042700
     57 H19        -31.0370   -39.2690    -7.4520 hc         1 A1A       0.042700
     58 H22        -29.9910   -37.0210    -6.9840 hc         1 A1A       0.039700
     59 H21        -31.7180   -36.9130    -7.2150 hc         1 A1A       0.039700
     60 H24        -30.0900   -35.2380    -8.5050 hc         1 A1A       0.042700
     61 H23        -31.5350   -35.8320    -9.2900 hc         1 A1A       0.042700
     62 H26        -29.2070   -35.9400   -10.5590 hc         1 A1A       0.049700
     63 H25        -30.3590   -37.2500   -10.7430 hc         1 A1A       0.049700
     64 H27        -27.6310   -40.7340   -10.8630 ha         1 A1A       0.126500
     65 H28        -28.2460   -41.8730   -12.9280 ha         1 A1A       0.125500
     66 H30        -29.3430   -42.1830   -16.3550 h1         1 A1A       0.042033
     67 H29        -28.0150   -42.3700   -15.1970 h1         1 A1A       0.042033
     68 H31        -29.7010   -42.4880   -14.6460 h1         1 A1A       0.042033
     69 H32        -29.0950   -38.0720   -14.7470 ha         1 A1A       0.125500
     70 H33        -28.4690   -36.9470   -12.6560 ha         1 A1A       0.126500
     71 O2         -20.9470   -41.0360    -3.0790 oh         1 A1A      -0.531100
     72 O3         -18.7610   -40.7060   -11.8190 oh         1 A1A      -0.530100
@<TRIPOS>BOND
     1     1     8 1   
     2     1    25 1   
     3     1    31 1   
     4     2     6 1   
     5     2     9 1   
     6     2    38 1   
     7     2    39 1   
     8     3     4 1   
     9     3     9 1   
    10     3    17 2   
    11     4     5 ar  
    12     4    16 ar  
    13     5    13 ar  
    14     5    40 1   
    15     6     8 1   
    16     6    24 1   
    17     6    41 1   
    18     7     8 2   
    19     8    12 2   
    20     9    10 1   
    21     9    43 1   
    22    10    24 1   
    23    11    34 1   
    24    11    35 1   
    25    13    14 ar  
    26    13    45 1   
    27    14    15 ar  
    28    14    71 1   
    29    15    16 ar  
    30    15    46 1   
    31    16    47 1   
    32    17    18 1   
    33    17    24 1   
    34    18    19 ar  
    35    18    23 ar  
    36    19    20 ar  
    37    19    48 1   
    38    20    21 ar  
    39    20    49 1   
    40    21    22 ar  
    41    21    72 1   
    42    22    23 ar  
    43    22    50 1   
    44    23    51 1   
    45    24    52 1   
    46    25    26 1   
    47    25    30 1   
    48    25    53 1   
    49    26    27 1   
    50    26    54 1   
    51    26    55 1   
    52    27    28 1   
    53    27    56 1   
    54    27    57 1   
    55    28    29 1   
    56    28    58 1   
    57    28    59 1   
    58    29    30 1   
    59    29    60 1   
    60    29    61 1   
    61    30    62 1   
    62    30    63 1   
    63    31    32 ar  
    64    31    37 ar  
    65    32    33 ar  
    66    32    64 1   
    67    33    34 ar  
    68    33    65 1   
    69    34    36 ar  
    70    35    66 1   
    71    35    67 1   
    72    35    68 1   
    73    36    37 ar  
    74    36    69 1   
    75    37    70 1   
    76    42    71 1   
    77    44    72 1   
@<TRIPOS>SUBSTRUCTURE
     1 A1A         1 TEMP              0 ****  ****    0 ROOT
