@<TRIPOS>MOLECULE
A1A
   56    61     1     0     0
SMALL
No Charge or Current Charge


@<TRIPOS>ATOM
      1 C10         54.5330    11.3290    56.5380 ca         1 A1A      -0.180500
      2 C13         53.3560     9.5630    57.7160 ca         1 A1A      -0.180500
      3 C15         51.0780    14.0710    57.5290 c5         1 A1A       0.181500
      4 C17         48.8350    13.6180    58.2650 c5         1 A1A      -0.362700
      5 C20         46.8630    15.4650    60.8440 c5         1 A1A       0.223800
      6 C21         46.4760    14.6020    62.1170 c5         1 A1A      -0.048100
      7 C22         46.0920    13.2600    61.5090 ca         1 A1A      -0.125300
      8 C24         46.0150    12.0740    59.3910 ca         1 A1A      -0.136000
      9 C26         45.3020    10.9720    61.4540 ca         1 A1A      -0.127000
     10 C02         50.7950    10.3980    62.9940 ca         1 A1A       0.145100
     11 C03         49.5860    10.8800    62.4740 ca         1 A1A      -0.178000
     12 C04         49.5860    11.6920    61.3280 ca         1 A1A      -0.057500
     13 C05         50.7970    12.0240    60.6900 ca         1 A1A      -0.074800
     14 C06         50.7940    12.8960    59.4830 ce         1 A1A      -0.075400
     15 C07         51.5570    12.8480    58.3480 cf         1 A1A      -0.070400
     16 C08         52.5440    11.8660    57.8520 ca         1 A1A      -0.082800
     17 C09         53.6030    12.2700    57.0130 ca         1 A1A      -0.053500
     18 C11         54.4110     9.9780    56.8900 ca         1 A1A       0.148100
     19 C14         52.4250    10.5020    58.1930 ca         1 A1A      -0.053500
     20 C16         49.6880    13.6890    56.9340 c5         1 A1A      -0.069400
     21 C23         46.3080    13.2210    60.1480 ca         1 A1A       0.270000
     22 C25         45.5100    10.9400    60.0580 ca         1 A1A      -0.083000
     23 C27         45.5910    12.1390    62.1900 ca         1 A1A      -0.075000
     24 C30         49.8720    14.1130    59.3200 c5         1 A1A       0.215500
     25 C32         52.0090    11.5440    61.2230 ca         1 A1A      -0.057500
     26 C33         52.0090    10.7300    62.3710 ca         1 A1A      -0.178000
     27 N19         46.8190    14.4470    59.7630 nh         1 A1A      -0.774300
     28 O12         55.3170     9.0740    56.4230 oh         1 A1A      -0.530100
     29 O31         50.6950    14.9870    58.5480 os         1 A1A      -0.405000
     30 S18         47.4190    14.8400    58.1900 s6         1 A1A       1.221100
     31 H101        55.3500    11.6500    55.8970 ha         1 A1A       0.123000
     32 H131        53.2470     8.5160    57.9890 ha         1 A1A       0.123000
     33 H151        51.7990    14.5030    56.8230 h1         1 A1A       0.105700
     34 H171        48.4310    12.6260    58.4760 h1         1 A1A       0.112700
     35 H202        47.8540    15.9250    60.9580 h1         1 A1A       0.072200
     36 H201        46.1280    16.2630    60.6680 h1         1 A1A       0.072200
     37 H211        47.3270    14.5040    62.8010 hc         1 A1A       0.063700
     38 H212        45.6540    15.0590    62.6790 hc         1 A1A       0.063700
     39 H241        46.1690    12.0500    58.3170 ha         1 A1A       0.145000
     40 H261        44.9130    10.0940    61.9640 ha         1 A1A       0.120000
     41 H031        48.6460    10.6250    62.9570 ha         1 A1A       0.122500
     42 H041        48.6440    12.0550    60.9310 ha         1 A1A       0.120500
     43 H091        53.7210    13.3150    56.7380 ha         1 A1A       0.120000
     44 H141        51.6010    10.1650    58.8160 ha         1 A1A       0.120000
     45 H161        49.3370    14.4520    56.2280 hc         1 A1A       0.072200
     46 H162        49.7170    12.7330    56.3980 hc         1 A1A       0.072200
     47 H251        45.2790    10.0380    59.4950 ha         1 A1A       0.120000
     48 H271        45.4310    12.1690    63.2650 ha         1 A1A       0.119000
     49 H301        49.5000    14.5650    60.2500 h1         1 A1A       0.101700
     50 H321        52.9530    11.8070    60.7510 ha         1 A1A       0.120500
     51 H331        52.9530    10.3660    62.7690 ha         1 A1A       0.122500
     52 H011        51.7120     9.3720    64.3250 ho         1 A1A       0.467000
     53 H121        55.0760     8.1880    56.7670 ho         1 A1A       0.467000
     54 O01         50.7860     9.6110    64.1060 oh         1 A1A      -0.532100
     55 O28         46.4060    14.4170    57.2170 o          1 A1A      -0.520000
     56 O29         47.8850    16.2310    58.2300 o          1 A1A      -0.520000
@<TRIPOS>BOND
     1     1    17 ar  
     2     1    18 ar  
     3     1    31 1   
     4     2    18 ar  
     5     2    19 ar  
     6     2    32 1   
     7     3    15 1   
     8     3    20 1   
     9     3    29 1   
    10     3    33 1   
    11     4    20 1   
    12     4    24 1   
    13     4    30 1   
    14     4    34 1   
    15     5     6 1   
    16     5    27 1   
    17     5    35 1   
    18     5    36 1   
    19     6     7 1   
    20     6    37 1   
    21     6    38 1   
    22     7    21 ar  
    23     7    23 ar  
    24     8    21 ar  
    25     8    22 ar  
    26     8    39 1   
    27     9    22 ar  
    28     9    23 ar  
    29     9    40 1   
    30    10    11 ar  
    31    10    26 ar  
    32    10    54 1   
    33    11    12 ar  
    34    11    41 1   
    35    12    13 ar  
    36    12    42 1   
    37    13    14 1   
    38    13    25 ar  
    39    14    15 2   
    40    14    24 1   
    41    15    16 1   
    42    16    17 ar  
    43    16    19 ar  
    44    17    43 1   
    45    18    28 1   
    46    19    44 1   
    47    20    45 1   
    48    20    46 1   
    49    21    27 1   
    50    22    47 1   
    51    23    48 1   
    52    24    29 1   
    53    24    49 1   
    54    25    26 ar  
    55    25    50 1   
    56    26    51 1   
    57    27    30 1   
    58    28    53 1   
    59    30    55 2   
    60    30    56 2   
    61    52    54 1   
@<TRIPOS>SUBSTRUCTURE
     1 A1A         1 TEMP              0 ****  ****    0 ROOT
