@<TRIPOS>MOLECULE
A1A
   68    72     1     0     0
SMALL
abcg2


@<TRIPOS>ATOM
      1 N1          47.0580    14.1300    60.1280 nh         1 A1A      -0.796300
      2 C4          51.2790    11.7390    57.9600 ce         1 A1A      -0.059400
      3 C5          52.6980    11.5410    57.6980 ca         1 A1A      -0.077800
      4 C6          53.3470    12.2660    56.6940 ca         1 A1A      -0.055000
      5 C7          54.6970    12.1000    56.4360 ca         1 A1A      -0.179000
      6 C8          55.4400    11.1820    57.1730 ca         1 A1A       0.148100
      7 C10         53.4570    10.6110    58.4140 ca         1 A1A      -0.055000
      8 C13         52.0070    11.9320    61.0700 ca         1 A1A      -0.055500
      9 C15         51.5610    10.8180    63.1540 ca         1 A1A       0.138100
     10 C17         50.1660    10.4160    61.2360 ca         1 A1A      -0.055500
     11 C20         44.6070    14.2910    60.5630 c3         1 A1A       0.194000
     12 C21         43.3820    13.4320    60.8090 c3         1 A1A      -0.118100
     13 C22         44.3560    15.3510    59.5120 c3         1 A1A      -0.118100
     14 C24         48.0720    15.7130    61.7140 ca         1 A1A      -0.062000
     15 C26         49.3290    14.8930    63.6040 ca         1 A1A       0.151100
     16 C28         49.0580    13.5860    63.2080 ca         1 A1A      -0.167000
     17 C1          49.3000    13.6020    58.6660 c5         1 A1A      -0.352700
     18 C11         50.5500    11.5800    59.0780 cf         1 A1A      -0.087400
     19 C12         50.9240    11.2930    60.4610 ca         1 A1A      -0.072800
     20 C14         52.3260    11.7030    62.3950 ca         1 A1A      -0.180000
     21 C16         50.4790    10.1700    62.5630 ca         1 A1A      -0.180000
     22 C18         49.1570    12.0520    58.6940 c5         1 A1A       0.218500
     23 C19         45.8030    13.4000    60.2420 c3         1 A1A       0.215800
     24 C2          50.0600    13.8030    57.3390 c5         1 A1A      -0.069400
     25 C23         47.8180    14.4070    61.3010 ca         1 A1A       0.205000
     26 C25         48.8270    15.9540    62.8450 ca         1 A1A      -0.167000
     27 C27         50.5650    14.1800    65.4970 c3         1 A1A       0.145900
     28 C29         48.3180    13.3570    62.0570 ca         1 A1A      -0.062000
     29 C3          50.3050    12.3240    56.9470 c5         1 A1A       0.179500
     30 C9          54.8040    10.4310    58.1610 ca         1 A1A      -0.179000
     31 F1          44.9080    14.9600    61.7670 f          1 A1A      -0.267000
     32 O1          48.0560    15.8960    58.5840 o          1 A1A      -0.530000
     33 O2          56.7490    11.0560    56.8880 oh         1 A1A      -0.530100
     34 O4          49.0770    11.7290    57.3270 os         1 A1A      -0.404000
     35 S1          47.7350    14.4760    58.6560 s6         1 A1A       1.226100
     36 H6          52.8010    12.9920    56.1040 ha         1 A1A       0.118500
     37 H7          55.1770    12.6840    55.6600 ha         1 A1A       0.123000
     38 H10         52.9880    10.0020    59.1750 ha         1 A1A       0.118500
     39 H11         52.6030    12.6330    60.4990 ha         1 A1A       0.121000
     40 H15         49.3160     9.9050    60.7990 ha         1 A1A       0.121000
     41 H20         43.5640    12.6970    61.5940 hc         1 A1A       0.051867
     42 H18         42.5310    14.0460    61.1020 hc         1 A1A       0.051867
     43 H19         43.1080    12.8930    59.9020 hc         1 A1A       0.051867
     44 H23         43.5080    15.9760    59.7970 hc         1 A1A       0.051867
     45 H22         45.2210    15.9990    59.3730 hc         1 A1A       0.051867
     46 H21         44.1210    14.8890    58.5540 hc         1 A1A       0.051867
     47 H24         47.6720    16.5470    61.1540 ha         1 A1A       0.127500
     48 H29         49.4230    12.7340    63.7650 ha         1 A1A       0.127000
     49 H1          49.8460    13.9830    59.5300 h1         1 A1A       0.118700
     50 H12         53.1610    12.2200    62.8530 ha         1 A1A       0.123500
     51 H14         49.8730     9.4800    63.1410 ha         1 A1A       0.123500
     52 H3          48.3190    11.6520    59.2660 h1         1 A1A       0.100700
     53 H16         45.6000    12.8540    59.3230 h1         1 A1A       0.067700
     54 H17         45.9170    12.6510    61.0280 h1         1 A1A       0.067700
     55 H5          50.9760    14.3770    57.4680 hc         1 A1A       0.071200
     56 H4          49.4610    14.2960    56.5720 hc         1 A1A       0.071200
     57 H25         49.0250    16.9710    63.1580 ha         1 A1A       0.127000
     58 H28         51.1170    14.6590    66.3020 h1         1 A1A       0.043700
     59 H26         49.7700    13.5690    65.9320 h1         1 A1A       0.043700
     60 H27         51.2460    13.5290    64.9430 h1         1 A1A       0.043700
     61 H30         48.1270    12.3350    61.7560 ha         1 A1A       0.127500
     62 H2          50.5220    12.1540    55.8930 h1         1 A1A       0.106700
     63 H9          55.3620     9.6960    58.7310 ha         1 A1A       0.123000
     64 H8          57.1550    10.3890    57.4530 ho         1 A1A       0.467000
     65 H13         51.3030    10.0180    64.8710 ho         1 A1A       0.467000
     66 O5          50.0500    15.2210    64.6900 os         1 A1A      -0.337100
     67 O3          51.9040    10.6400    64.4430 oh         1 A1A      -0.535100
     68 O6          46.8550    13.9190    57.6380 o          1 A1A      -0.530000
@<TRIPOS>BOND
     1     1    23 1   
     2     1    25 1   
     3     1    35 1   
     4     2     3 1   
     5     2    18 2   
     6     2    29 1   
     7     3     4 ar  
     8     3     7 ar  
     9     4     5 ar  
    10     4    36 1   
    11     5     6 ar  
    12     5    37 1   
    13     6    30 ar  
    14     6    33 1   
    15     7    30 ar  
    16     7    38 1   
    17     8    19 ar  
    18     8    20 ar  
    19     8    39 1   
    20     9    20 ar  
    21     9    21 ar  
    22     9    67 1   
    23    10    19 ar  
    24    10    21 ar  
    25    10    40 1   
    26    11    12 1   
    27    11    13 1   
    28    11    23 1   
    29    11    31 1   
    30    12    41 1   
    31    12    42 1   
    32    12    43 1   
    33    13    44 1   
    34    13    45 1   
    35    13    46 1   
    36    14    25 ar  
    37    14    26 ar  
    38    14    47 1   
    39    15    16 ar  
    40    15    26 ar  
    41    15    66 1   
    42    16    28 ar  
    43    16    48 1   
    44    17    22 1   
    45    17    24 1   
    46    17    35 1   
    47    17    49 1   
    48    18    19 1   
    49    18    22 1   
    50    20    50 1   
    51    21    51 1   
    52    22    34 1   
    53    22    52 1   
    54    23    53 1   
    55    23    54 1   
    56    24    29 1   
    57    24    55 1   
    58    24    56 1   
    59    25    28 ar  
    60    26    57 1   
    61    27    58 1   
    62    27    59 1   
    63    27    60 1   
    64    27    66 1   
    65    28    61 1   
    66    29    34 1   
    67    29    62 1   
    68    30    63 1   
    69    32    35 2   
    70    33    64 1   
    71    35    68 2   
    72    65    67 1   
@<TRIPOS>SUBSTRUCTURE
     1 A1A         1 TEMP              0 ****  ****    0 ROOT
