@<TRIPOS>MOLECULE
A1A
   57    59     1     0     0
SMALL
abcg2


@<TRIPOS>ATOM
      1 C10        133.1560   132.0280   136.6670 c6         1 A1A      -0.098400
      2 C13        131.5460   130.2770   135.9500 c6         1 A1A      -0.103400
      3 C15        129.2080   130.7040   139.2820 c6         1 A1A       0.186300
      4 C17        129.1680   131.6550   140.4840 c6         1 A1A      -0.131400
      5 C20        133.2610   132.4670   134.1670 c3         1 A1A      -0.098100
      6 C21        135.3580   132.0610   135.4430 c3         1 A1A      -0.098100
      7 C22        129.9340   133.8370   143.7500 c          1 A1A       0.617700
      8 C24        129.9650   136.3110   143.7480 ca         1 A1A      -0.070000
      9 C26        127.2390   136.4680   144.1780 ca         1 A1A       0.116000
     10 C28        127.9660   137.6390   144.0520 ca         1 A1A      -0.081000
     11 C08        132.2550   130.8880   137.1480 c6         1 A1A      -0.056700
     12 C09        131.2780   131.4050   138.1990 c3         1 A1A       0.180800
     13 C11        133.8820   131.7010   135.3370 c6         1 A1A       0.189000
     14 C12        130.2250   131.2880   141.5330 c6         1 A1A       0.182000
     15 C14        131.2880   129.6590   139.9190 c6         1 A1A       0.186300
     16 C16        130.7000   129.8630   141.3230 c6         1 A1A      -0.131400
     17 C18        132.5700   129.7230   134.9570 c6         1 A1A       0.162600
     18 C19        129.7390   131.5090   142.9620 c3         1 A1A       0.083000
     19 C23        129.2100   135.1490   143.8540 ca         1 A1A      -0.134600
     20 C25        127.8390   135.2230   144.0780 ca         1 A1A      -0.070000
     21 C27        129.3310   137.5380   143.8330 ca         1 A1A       0.116000
     22 F03        131.3410   132.1280   141.3510 f          1 A1A      -0.260000
     23 N06        130.5440   130.3420   138.8620 n3         1 A1A      -0.745600
     24 N07        129.2300   132.8410   143.1870 ns         1 A1A      -0.499900
     25 O04        133.8520   130.2980   135.1030 os         1 A1A      -0.460000
     26 O05        131.0780   133.7290   144.1600 o          1 A1A      -0.575100
     27 CL2        130.2580   138.9860   143.6600 cl         1 A1A      -0.184000
     28 H1         133.8830   132.2610   137.4500 hc         1 A1A       0.044200
     29 H2         132.5510   132.9320   136.5380 hc         1 A1A       0.044200
     30 H3         130.9190   131.0450   135.4840 hc         1 A1A       0.048700
     31 H4         130.8710   129.4790   136.2640 hc         1 A1A       0.048700
     32 H5         128.6750   131.1490   138.4400 h1         1 A1A       0.051700
     33 H6         128.6640   129.7880   139.5310 h1         1 A1A       0.051700
     34 H7         129.3210   132.6890   140.1700 hc         1 A1A       0.054950
     35 H8         128.1660   131.6120   140.9210 hc         1 A1A       0.054950
     36 H9         133.3890   133.5400   134.3150 hc         1 A1A       0.040533
     37 H10        133.7440   132.2000   133.2250 hc         1 A1A       0.040533
     38 H11        132.1900   132.2850   134.0640 hc         1 A1A       0.040533
     39 H12        135.4690   133.1220   135.6720 hc         1 A1A       0.040533
     40 H13        135.8420   131.4960   136.2420 hc         1 A1A       0.040533
     41 H14        135.8870   131.8610   134.5090 hc         1 A1A       0.040533
     42 H15        131.0330   136.2560   143.5850 ha         1 A1A       0.144000
     43 H16        127.4840   138.6040   144.1240 ha         1 A1A       0.147000
     44 H17        132.8860   130.1200   137.6120 hc         1 A1A       0.061700
     45 H18        131.8260   132.0400   138.9090 h1         1 A1A       0.038200
     46 H19        130.5570   132.0600   137.6990 h1         1 A1A       0.038200
     47 H20        131.3380   128.5820   139.7240 h1         1 A1A       0.051700
     48 H21        132.3210   130.0120   139.9130 h1         1 A1A       0.051700
     49 H22        129.8500   129.1940   141.4820 hc         1 A1A       0.054950
     50 H23        131.4470   129.5920   142.0730 hc         1 A1A       0.054950
     51 H24        132.2030   129.8330   133.9280 h1         1 A1A       0.038700
     52 H25        132.7130   128.6530   135.1280 h1         1 A1A       0.038700
     53 H26        128.9430   130.7930   143.1740 h1         1 A1A       0.070200
     54 H27        130.5470   131.3120   143.6670 h1         1 A1A       0.070200
     55 H28        127.2400   134.3310   144.1990 ha         1 A1A       0.144000
     56 H30        128.3240   133.0520   142.8000 hn         1 A1A       0.314500
     57 CL1        125.5380   136.5660   144.4670 cl         1 A1A      -0.184000
@<TRIPOS>BOND
     1     1    11 1   
     2     1    13 1   
     3     1    28 1   
     4     1    29 1   
     5     2    11 1   
     6     2    17 1   
     7     2    30 1   
     8     2    31 1   
     9     3     4 1   
    10     3    23 1   
    11     3    32 1   
    12     3    33 1   
    13     4    14 1   
    14     4    34 1   
    15     4    35 1   
    16     5    13 1   
    17     5    36 1   
    18     5    37 1   
    19     5    38 1   
    20     6    13 1   
    21     6    39 1   
    22     6    40 1   
    23     6    41 1   
    24     7    19 1   
    25     7    24 1   
    26     7    26 2   
    27     8    19 ar  
    28     8    21 ar  
    29     8    42 1   
    30     9    10 ar  
    31     9    20 ar  
    32     9    57 1   
    33    10    21 ar  
    34    10    43 1   
    35    11    12 1   
    36    11    44 1   
    37    12    23 1   
    38    12    45 1   
    39    12    46 1   
    40    13    25 1   
    41    14    16 1   
    42    14    18 1   
    43    14    22 1   
    44    15    16 1   
    45    15    23 1   
    46    15    47 1   
    47    15    48 1   
    48    16    49 1   
    49    16    50 1   
    50    17    25 1   
    51    17    51 1   
    52    17    52 1   
    53    18    24 1   
    54    18    53 1   
    55    18    54 1   
    56    19    20 ar  
    57    20    55 1   
    58    21    27 1   
    59    24    56 1   
@<TRIPOS>SUBSTRUCTURE
     1 A1A         1 TEMP              0 ****  ****    0 ROOT
