@<TRIPOS>MOLECULE
A1A
   59    62     1     0     0
SMALL
abcg2


@<TRIPOS>ATOM
      1 N1         -22.5500    10.6250   -17.0240 n1         1 A1A      -0.521000
      2 N3         -19.1200    10.3290   -17.6840 nc         1 A1A      -0.255800
      3 C4         -21.7780    10.1810   -16.2970 c1         1 A1A       0.349900
      4 C5         -20.2820    10.7940   -13.4330 c5         1 A1A       0.125300
      5 C6         -19.0960    10.3350   -12.6130 c3         1 A1A       0.219600
      6 C7         -17.4040     5.8470    -8.8340 c3         1 A1A       0.222600
      7 C8         -17.5870     4.3740    -9.1700 c5         1 A1A       0.158300
      8 C10        -15.4480     3.6540    -9.8960 c5         1 A1A       0.076300
      9 C13        -19.6550     7.2990   -15.9910 cc         1 A1A      -0.185000
     10 C15        -18.4330     8.0180   -17.7140 cd         1 A1A      -0.267000
     11 C17        -17.5900     8.3260   -18.8240 cc         1 A1A       0.447900
     12 C1         -21.5860    10.0380   -13.1780 c5         1 A1A       0.141300
     13 C11        -16.3630     4.0190   -11.0890 c5         1 A1A       0.391300
     14 C12        -19.9030     8.6530   -16.1550 cd         1 A1A      -0.071300
     15 C14        -18.7350     6.8950   -16.9650 cc         1 A1A      -0.194000
     16 C16        -18.3210    10.4760   -18.6950 cd         1 A1A       0.108900
     17 C2         -21.5090     8.9050   -14.1960 c5         1 A1A       0.161300
     18 C3         -20.7690     9.5970   -15.3830 c5         1 A1A       0.296300
     19 C9         -16.4180     3.5130    -8.7120 c5         1 A1A       0.136300
     20 N2         -19.1570     9.0710   -17.2060 na         1 A1A       0.298900
     21 N4         -17.5480     9.5570   -19.3000 nd         1 A1A      -0.334000
     22 N5         -16.8470     7.3790   -19.3860 nv         1 A1A      -1.078900
     23 O1         -22.7130    10.8150   -13.4870 oh         1 A1A      -0.717000
     24 O10        -19.8050     8.6210    -9.8660 o          1 A1A      -0.855500
     25 O11        -17.6950     8.7510    -8.3220 o          1 A1A      -0.855500
     26 O12        -16.3460     8.9400   -12.9950 o          1 A1A      -0.846500
     27 O13        -17.7570     6.7640   -12.7080 o          1 A1A      -0.846500
     28 O2         -20.0110    10.6390   -14.8290 os         1 A1A      -0.419000
     29 O4         -17.3960     8.4490   -10.7810 os         1 A1A      -0.734800
     30 O5         -18.4710     6.5620    -9.4160 os         1 A1A      -0.589400
     31 O6         -17.6630     4.1330   -10.5630 os         1 A1A      -0.437000
     32 O7         -15.9090     5.2000   -11.6530 oh         1 A1A      -0.819000
     33 O8         -14.7170     2.4650   -10.0470 oh         1 A1A      -0.748000
     34 O9         -16.8780     2.1950    -8.5600 oh         1 A1A      -0.721000
     35 P1         -17.5060     8.2170   -12.3950 p5         1 A1A       1.506800
     36 P2         -18.4200     8.1980    -9.5060 p5         1 A1A       1.483800
     37 H4         -20.4170    11.8620   -13.2280 h1         1 A1A       0.043700
     38 H5         -18.2120    10.9020   -12.9250 h1         1 A1A       0.043700
     39 H6         -19.2890    10.5710   -11.5630 h1         1 A1A       0.043700
     40 H7         -16.4320     6.2110    -9.1850 h1         1 A1A       0.018700
     41 H8         -17.4090     5.9520    -7.7430 h1         1 A1A       0.018700
     42 H9         -18.5260     4.0300    -8.7230 h1         1 A1A       0.079700
     43 H11        -14.7810     4.5040    -9.7080 h1         1 A1A       0.064700
     44 H16        -20.0980     6.6590   -15.2440 ha         1 A1A       0.224000
     45 H2         -21.6250     9.6450   -12.1550 h1         1 A1A       0.114700
     46 H12        -16.3990     3.2060   -11.8290 h2         1 A1A       0.030700
     47 H17        -18.3350     5.9040   -17.1040 ha         1 A1A       0.195000
     48 H18        -18.2770    11.4810   -19.0970 h5         1 A1A       0.038100
     49 H3         -20.8480     8.1390   -13.7870 h1         1 A1A       0.122700
     50 H10        -15.9650     3.8860    -7.7830 h1         1 A1A       0.036700
     51 H19        -16.2530     7.6080   -20.1660 hn         1 A1A       0.495500
     52 H20        -16.8410     6.4300   -19.0530 hn         1 A1A       0.495500
     53 H1         -22.7460    11.5620   -12.8800 ho         1 A1A       0.488000
     54 H21        -22.6540     7.4830   -14.8190 ho         1 A1A       0.496000
     55 H13        -16.6420     5.6860   -12.1110 ho         1 A1A       0.621000
     56 H14        -13.9990     2.6170   -10.6690 ho         1 A1A       0.506000
     57 H15        -16.1160     1.6070    -8.6040 ho         1 A1A       0.501000
     58 O14        -22.7570     8.3950   -14.5320 oh         1 A1A      -0.694000
     59 O3         -18.9090     8.9510   -12.7900 os         1 A1A      -0.611400
@<TRIPOS>BOND
     1     1     3 3   
     2     2    16 2   
     3     2    20 1   
     4     3    18 1   
     5     4     5 1   
     6     4    12 1   
     7     4    28 1   
     8     4    37 1   
     9     5    38 1   
    10     5    39 1   
    11     5    59 1   
    12     6     7 1   
    13     6    30 1   
    14     6    40 1   
    15     6    41 1   
    16     7    19 1   
    17     7    31 1   
    18     7    42 1   
    19     8    13 1   
    20     8    19 1   
    21     8    33 1   
    22     8    43 1   
    23     9    14 2   
    24     9    15 1   
    25     9    44 1   
    26    10    11 1   
    27    10    15 2   
    28    10    20 1   
    29    11    21 2   
    30    11    22 1   
    31    12    17 1   
    32    12    23 1   
    33    12    45 1   
    34    13    31 1   
    35    13    32 1   
    36    13    46 1   
    37    14    18 1   
    38    14    20 1   
    39    15    47 1   
    40    16    21 1   
    41    16    48 1   
    42    17    18 1   
    43    17    49 1   
    44    17    58 1   
    45    18    28 1   
    46    19    34 1   
    47    19    50 1   
    48    22    51 1   
    49    22    52 1   
    50    23    53 1   
    51    24    36 1   
    52    25    36 1   
    53    26    35 1   
    54    27    35 1   
    55    29    35 1   
    56    29    36 1   
    57    30    36 1   
    58    32    55 1   
    59    33    56 1   
    60    34    57 1   
    61    35    59 1   
    62    54    58 1   
@<TRIPOS>SUBSTRUCTURE
     1 A1A         1 TEMP              0 ****  ****    0 ROOT
