@<TRIPOS>MOLECULE
A1A
   50    52     1     0     0
SMALL
abcg2


@<TRIPOS>ATOM
      1 C10        131.9280   131.6500   139.9300 c5         1 A1A       0.190300
      2 C13        131.9330   131.8050   136.8930 c3         1 A1A      -0.070400
      3 C15        128.8920   134.7390   143.8280 c          1 A1A       0.615700
      4 C20        127.2790   136.3590   142.7480 ca         1 A1A      -0.069500
      5 C21        127.7600   136.5350   145.1040 ca         1 A1A      -0.069500
      6 C22        126.8980   137.6140   145.1830 ca         1 A1A       0.115000
      7 C24        126.2290   138.0960   144.0670 ca         1 A1A      -0.082000
      8 C06        131.3390   133.5130   141.3400 cx         1 A1A      -0.128200
      9 C07        131.4470   132.0170   141.3120 cx         1 A1A      -0.128200
     10 C08        130.1010   132.6720   141.4180 cx         1 A1A      -0.127700
     11 C09        131.7590   133.9870   139.9720 c5         1 A1A       0.190300
     12 C11        129.3750   132.5840   142.7340 c3         1 A1A       0.126000
     13 C14        132.6000   131.8640   135.5080 c3         1 A1A      -0.046000
     14 C16        134.1220   131.7610   135.6300 c3         1 A1A      -0.083767
     15 C18        132.0930   130.6720   134.6920 c3         1 A1A      -0.083767
     16 C19        127.9350   135.8950   143.8820 ca         1 A1A      -0.134600
     17 C23        126.4410   137.4580   142.8560 ca         1 A1A       0.115000
     18 N04        131.6000   132.8160   139.1220 n3         1 A1A      -0.742600
     19 N05        128.5500   133.7480   142.9940 ns         1 A1A      -0.497900
     20 O03        129.8930   134.7360   144.5300 o          1 A1A      -0.597100
     21 CL2        125.6460   138.0600   141.4450 cl         1 A1A      -0.185000
     22 H1         131.4480   130.7510   139.5340 h1         1 A1A       0.042450
     23 H2         133.0130   131.4540   139.9670 h1         1 A1A       0.042450
     24 H3         130.8450   131.8180   136.7610 hc         1 A1A       0.044700
     25 H4         132.1770   130.8350   137.3390 hc         1 A1A       0.044700
     26 H5         132.6270   134.0400   135.2710 hc         1 A1A       0.032811
     27 H6         132.6360   133.1450   133.7580 hc         1 A1A       0.032811
     28 H7         131.1480   133.2700   134.6960 hc         1 A1A       0.032811
     29 H8         127.4330   135.8970   141.7810 ha         1 A1A       0.144000
     30 H9         128.2830   136.1870   145.9840 ha         1 A1A       0.144000
     31 H10        125.5670   138.9470   144.1390 ha         1 A1A       0.146000
     32 H11        131.6380   134.0910   142.2070 hc         1 A1A       0.099700
     33 H12        131.8260   131.4580   142.1590 hc         1 A1A       0.099700
     34 H13        129.4620   132.6440   140.5400 hc         1 A1A       0.097700
     35 H14        132.8040   134.3360   140.0200 h1         1 A1A       0.042450
     36 H15        131.1570   134.8170   139.5880 h1         1 A1A       0.042450
     37 H16        128.7300   131.7040   142.7490 h1         1 A1A       0.060200
     38 H17        130.0820   132.4720   143.5560 h1         1 A1A       0.060200
     39 H18        133.3990   132.9260   138.0300 h1         1 A1A       0.030200
     40 H19        132.0560   133.8870   137.4260 h1         1 A1A       0.030200
     41 H20        134.5530   132.6190   136.1480 hc         1 A1A       0.032811
     42 H21        134.4130   130.8620   136.1790 hc         1 A1A       0.032811
     43 H22        134.5860   131.7090   134.6430 hc         1 A1A       0.032811
     44 H23        132.3450   129.7260   135.1760 hc         1 A1A       0.032811
     45 H24        131.0070   130.7070   134.5730 hc         1 A1A       0.032811
     46 H25        132.5360   130.6650   133.6950 hc         1 A1A       0.032811
     47 H27        127.6680   133.7980   142.5100 hn         1 A1A       0.317500
     48 C12        132.3080   132.9170   137.8640 c3         1 A1A       0.179800
     49 CL1        126.6530   138.3940   146.7060 cl         1 A1A      -0.185000
     50 C17        132.2320   133.1540   134.7720 c3         1 A1A      -0.083767
@<TRIPOS>BOND
     1     1     9 1   
     2     1    18 1   
     3     1    22 1   
     4     1    23 1   
     5     2    13 1   
     6     2    24 1   
     7     2    25 1   
     8     2    48 1   
     9     3    16 1   
    10     3    19 1   
    11     3    20 2   
    12     4    16 ar  
    13     4    17 ar  
    14     4    29 1   
    15     5     6 ar  
    16     5    16 ar  
    17     5    30 1   
    18     6     7 ar  
    19     6    49 1   
    20     7    17 ar  
    21     7    31 1   
    22     8     9 1   
    23     8    10 1   
    24     8    11 1   
    25     8    32 1   
    26     9    10 1   
    27     9    33 1   
    28    10    12 1   
    29    10    34 1   
    30    11    18 1   
    31    11    35 1   
    32    11    36 1   
    33    12    19 1   
    34    12    37 1   
    35    12    38 1   
    36    13    14 1   
    37    13    15 1   
    38    13    50 1   
    39    14    41 1   
    40    14    42 1   
    41    14    43 1   
    42    15    44 1   
    43    15    45 1   
    44    15    46 1   
    45    17    21 1   
    46    18    48 1   
    47    19    47 1   
    48    26    50 1   
    49    27    50 1   
    50    28    50 1   
    51    39    48 1   
    52    40    48 1   
@<TRIPOS>SUBSTRUCTURE
     1 A1A         1 TEMP              0 ****  ****    0 ROOT
