@<TRIPOS>MOLECULE
A1A
   66    71     1     0     0
SMALL
No Charge or Current Charge


@<TRIPOS>ATOM
      1 N1          28.1940    20.0000    32.2340 nh         1 A1A      -0.798300
      2 C4          24.2140    17.4430    34.3320 ce         1 A1A      -0.062400
      3 C5          22.8060    17.0110    34.5640 ca         1 A1A      -0.075800
      4 C6          22.2980    15.8600    33.9280 ca         1 A1A      -0.055000
      5 C7          20.9710    15.4530    34.1520 ca         1 A1A      -0.179000
      6 C8          20.1460    16.1870    35.0150 ca         1 A1A       0.147100
      7 C10         21.9720    17.7390    35.4370 ca         1 A1A      -0.055000
      8 C13         23.5030    17.2270    31.2210 ca         1 A1A      -0.056500
      9 C15         24.2070    16.0930    29.1870 ca         1 A1A       0.138100
     10 C17         25.6800    16.1480    31.1230 ca         1 A1A      -0.056500
     11 C20         30.0210    18.2790    32.2770 cx         1 A1A      -0.134700
     12 C21         31.3630    17.7670    31.8050 cx         1 A1A      -0.126900
     13 C22         30.0990    17.3270    31.1040 cx         1 A1A      -0.126900
     14 C24         26.8870    21.4770    30.7440 ca         1 A1A      -0.056000
     15 C26         25.7360    20.5280    28.8130 ca         1 A1A       0.153100
     16 C28         26.2670    19.2620    29.1330 ca         1 A1A      -0.173000
     17 C1          26.0240    19.5000    33.6620 c5         1 A1A      -0.337700
     18 C11         25.0020    17.3320    33.2190 cf         1 A1A      -0.086400
     19 C12         24.7220    16.8890    31.8420 ca         1 A1A      -0.073800
     20 C14         23.2490    16.8310    29.8960 ca         1 A1A      -0.179500
     21 C16         25.4220    15.7490    29.7990 ca         1 A1A      -0.179500
     22 C18         26.3380    17.9770    33.6380 c5         1 A1A       0.219500
     23 C19         29.6370    19.7460    32.0950 c3         1 A1A       0.261800
     24 C2          25.1660    19.6140    34.9840 c5         1 A1A      -0.073400
     25 C23         27.4000    20.2090    31.0860 ca         1 A1A       0.187000
     26 C25         26.0600    21.6320    29.6160 ca         1 A1A      -0.173000
     27 C27         24.4490    19.6490    26.9010 c3         1 A1A       0.145900
     28 C29         27.0960    19.1140    30.2580 ca         1 A1A      -0.056000
     29 C3          25.0980    18.1080    35.4040 c5         1 A1A       0.179500
     30 C9          20.6450    17.3290    35.6600 ca         1 A1A      -0.179000
     31 O1          27.3850    21.8970    33.8080 o          1 A1A      -0.533000
     32 O2          18.8620    15.7840    35.2260 oh         1 A1A      -0.530100
     33 O4          26.3980    17.6570    35.0260 os         1 A1A      -0.402000
     34 S1          27.6250    20.4510    33.8160 s6         1 A1A       1.216100
     35 H6          22.9320    15.2760    33.2670 ha         1 A1A       0.118500
     36 H7          20.5860    14.5650    33.6570 ha         1 A1A       0.123000
     37 H10         22.3470    18.6280    35.9400 ha         1 A1A       0.118500
     38 H11         22.7610    17.8100    31.7610 ha         1 A1A       0.122000
     39 H15         26.6230    15.8750    31.5900 ha         1 A1A       0.122000
     40 H18         29.6620    17.8720    33.2190 hc         1 A1A       0.082700
     41 H20         31.8760    17.0390    32.4300 hc         1 A1A       0.072450
     42 H19         32.0190    18.4570    31.2780 hc         1 A1A       0.072450
     43 H22         29.9140    17.7220    30.1080 hc         1 A1A       0.072450
     44 H21         29.7590    16.3060    31.2590 hc         1 A1A       0.072450
     45 H23         27.1300    22.3470    31.3450 ha         1 A1A       0.128000
     46 H28         26.0450    18.3870    28.5310 ha         1 A1A       0.128500
     47 H1          25.5000    19.8580    32.7720 h1         1 A1A       0.116700
     48 H12         22.3100    17.1000    29.4210 ha         1 A1A       0.123500
     49 H14         26.1710    15.1760    29.2580 ha         1 A1A       0.123500
     50 H3          27.2280    17.6520    33.0800 h1         1 A1A       0.109700
     51 H16         30.2020    20.3520    32.8160 h1         1 A1A       0.062200
     52 H17         29.9690    20.0770    31.1010 h1         1 A1A       0.062200
     53 H5          25.6470    20.2190    35.7620 hc         1 A1A       0.070200
     54 H4          24.1730    20.0420    34.8060 hc         1 A1A       0.070200
     55 H24         25.6630    22.6130    29.3670 ha         1 A1A       0.128500
     56 H25         23.7800    20.0250    26.1170 h1         1 A1A       0.043367
     57 H26         25.2970    19.1510    26.4140 h1         1 A1A       0.043367
     58 H27         23.8980    18.9070    27.4930 h1         1 A1A       0.043367
     59 H29         27.4880    18.1340    30.5050 ha         1 A1A       0.128000
     60 H2          24.8510    17.8930    36.4530 h1         1 A1A       0.105700
     61 H9          20.0140    17.9040    36.3330 ha         1 A1A       0.123000
     62 H8          18.4390    16.4090    35.8520 ho         1 A1A       0.467000
     63 H13         24.7080    15.1810    27.5810 ho         1 A1A       0.466000
     64 O5          24.9020    20.7330    27.7330 os         1 A1A      -0.337100
     65 O3          23.9530    15.7170    27.9030 oh         1 A1A      -0.534100
     66 O6          28.5280    19.8510    34.8040 o          1 A1A      -0.533000
@<TRIPOS>BOND
     1     1    23 1   
     2     1    25 1   
     3     1    34 1   
     4     2     3 1   
     5     2    18 2   
     6     2    29 1   
     7     3     4 ar  
     8     3     7 ar  
     9     4     5 ar  
    10     4    35 1   
    11     5     6 ar  
    12     5    36 1   
    13     6    30 ar  
    14     6    32 1   
    15     7    30 ar  
    16     7    37 1   
    17     8    19 ar  
    18     8    20 ar  
    19     8    38 1   
    20     9    20 ar  
    21     9    21 ar  
    22     9    65 1   
    23    10    19 ar  
    24    10    21 ar  
    25    10    39 1   
    26    11    12 1   
    27    11    13 1   
    28    11    23 1   
    29    11    40 1   
    30    12    13 1   
    31    12    41 1   
    32    12    42 1   
    33    13    43 1   
    34    13    44 1   
    35    14    25 ar  
    36    14    26 ar  
    37    14    45 1   
    38    15    16 ar  
    39    15    26 ar  
    40    15    64 1   
    41    16    28 ar  
    42    16    46 1   
    43    17    22 1   
    44    17    24 1   
    45    17    34 1   
    46    17    47 1   
    47    18    19 1   
    48    18    22 1   
    49    20    48 1   
    50    21    49 1   
    51    22    33 1   
    52    22    50 1   
    53    23    51 1   
    54    23    52 1   
    55    24    29 1   
    56    24    53 1   
    57    24    54 1   
    58    25    28 ar  
    59    26    55 1   
    60    27    56 1   
    61    27    57 1   
    62    27    58 1   
    63    27    64 1   
    64    28    59 1   
    65    29    33 1   
    66    29    60 1   
    67    30    61 1   
    68    31    34 2   
    69    32    62 1   
    70    34    66 2   
    71    63    65 1   
@<TRIPOS>SUBSTRUCTURE
     1 A1A         1 TEMP              0 ****  ****    0 ROOT
