@<TRIPOS>MOLECULE
A1A
   49    52     1     0     0
SMALL
No Charge or Current Charge


@<TRIPOS>ATOM
      1 C10        133.3380   132.5310   135.6980 cx         1 A1A      -0.166700
      2 C13        133.6570   131.1070   135.3180 ca         1 A1A      -0.061300
      3 C15        134.8160   130.4800   135.8150 ca         1 A1A      -0.083000
      4 C17        135.1120   129.1520   135.4630 ca         1 A1A      -0.097500
      5 C21        133.9100   126.0140   135.2140 c          1 A1A       0.614100
      6 C22        134.4950   124.6350   137.1980 cc         1 A1A       0.382900
      7 C24        133.2650   124.0430   137.5240 cc         1 A1A      -0.216000
      8 C26        136.4730   121.6150   139.5340 ca         1 A1A       0.353300
      9 C28        136.8910   119.6320   138.1870 ca         1 A1A      -0.035000
     10 C11        133.1220   133.5490   134.5920 cx         1 A1A      -0.096400
     11 C12        134.3770   133.6060   135.4300 cx         1 A1A      -0.096400
     12 C14        132.4800   132.6020   136.9790 c3         1 A1A       0.337000
     13 C16        132.7980   130.3880   134.4660 ca         1 A1A      -0.083000
     14 C18        133.0940   129.0600   134.1140 ca         1 A1A      -0.097500
     15 C19        134.2540   128.4340   134.6090 ca         1 A1A      -0.077300
     16 C25        133.4800   123.2590   138.6150 cd         1 A1A      -0.157000
     17 C27        136.0450   120.6910   138.5570 ca         1 A1A      -0.143000
     18 C29        138.1440   119.5310   138.8170 ca         1 A1A      -0.071000
     19 C30        138.4950   120.4860   139.7860 ca         1 A1A       0.384900
     20 C31        139.0560   118.4780   138.4890 cg         1 A1A       0.323000
     21 F01        133.1220   132.0330   138.0250 f          1 A1A      -0.113333
     22 F02        132.1870   133.8770   137.3290 f          1 A1A      -0.113333
     23 F03        131.3060   131.9500   136.8120 f          1 A1A      -0.113333
     24 N05        134.7580   125.5030   136.1700 ns         1 A1A      -0.471400
     25 N06        134.8420   123.4190   138.8890 na         1 A1A       0.122800
     26 N07        135.4700   124.2820   138.0010 nd         1 A1A      -0.579800
     27 N08        137.6800   121.5100   140.1450 nb         1 A1A      -0.673000
     28 N09        139.7920   117.6140   138.2150 n1         1 A1A      -0.438000
     29 O04        132.7220   125.7360   135.1440 o          1 A1A      -0.573100
     30 H1         135.4860   131.0220   136.4770 ha         1 A1A       0.121500
     31 H2         136.0110   128.6840   135.8580 ha         1 A1A       0.119000
     32 H3         134.1890   126.7830   133.2260 hc         1 A1A       0.071700
     33 H4         135.6580   126.8480   134.2400 hc         1 A1A       0.071700
     34 H5         132.3240   124.1860   137.0060 ha         1 A1A       0.173000
     35 H6         136.5790   118.9110   137.4340 ha         1 A1A       0.134000
     36 H7         132.3780   134.3280   134.7400 hc         1 A1A       0.087200
     37 H8         133.2220   133.2150   133.5620 hc         1 A1A       0.087200
     38 H9         135.3100   133.3100   134.9560 hc         1 A1A       0.087200
     39 H10        134.4750   134.4240   136.1400 hc         1 A1A       0.087200
     40 H11        131.8980   130.8580   134.0780 ha         1 A1A       0.121500
     41 H12        132.4180   128.5170   133.4570 ha         1 A1A       0.119000
     42 H13        136.2130   123.5390   140.4620 h1         1 A1A       0.086200
     43 H14        134.8800   122.4080   140.7240 h1         1 A1A       0.086200
     44 H15        132.8160   122.6280   139.1950 h4         1 A1A       0.156000
     45 H16        135.0680   120.7930   138.0910 ha         1 A1A       0.141000
     46 H17        139.4570   120.4370   140.2960 h4         1 A1A       0.035100
     47 H18        135.7110   125.8280   136.1030 hn         1 A1A       0.331500
     48 C20        134.5700   126.9900   134.2320 c3         1 A1A      -0.112100
     49 C23        135.5930   122.7760   139.9780 c3         1 A1A       0.038300
@<TRIPOS>BOND
     1     1     2 1   
     2     1    10 1   
     3     1    11 1   
     4     1    12 1   
     5     2     3 ar  
     6     2    13 ar  
     7     3     4 ar  
     8     3    30 1   
     9     4    15 ar  
    10     4    31 1   
    11     5    24 1   
    12     5    29 2   
    13     5    48 1   
    14     6     7 1   
    15     6    24 1   
    16     6    26 2   
    17     7    16 2   
    18     7    34 1   
    19     8    17 ar  
    20     8    27 ar  
    21     8    49 1   
    22     9    17 ar  
    23     9    18 ar  
    24     9    35 1   
    25    10    11 1   
    26    10    36 1   
    27    10    37 1   
    28    11    38 1   
    29    11    39 1   
    30    12    21 1   
    31    12    22 1   
    32    12    23 1   
    33    13    14 ar  
    34    13    40 1   
    35    14    15 ar  
    36    14    41 1   
    37    15    48 1   
    38    16    25 1   
    39    16    44 1   
    40    17    45 1   
    41    18    19 ar  
    42    18    20 1   
    43    19    27 ar  
    44    19    46 1   
    45    20    28 3   
    46    24    47 1   
    47    25    26 1   
    48    25    49 1   
    49    32    48 1   
    50    33    48 1   
    51    42    49 1   
    52    43    49 1   
@<TRIPOS>SUBSTRUCTURE
     1 A1A         1 TEMP              0 ****  ****    0 ROOT
