@<TRIPOS>MOLECULE
A1A
   59    64     1     0     0
SMALL
No Charge or Current Charge


@<TRIPOS>ATOM
      1 N1          24.1420    36.9220     9.6320 nh         1 A1A      -0.769300
      2 C4          28.5350    39.1910     9.4990 ce         1 A1A      -0.074400
      3 C5          29.8440    39.6870    10.0100 ca         1 A1A      -0.074800
      4 C6          30.5040    40.7510     9.3640 ca         1 A1A      -0.056500
      5 C7          31.7340    41.2240     9.8530 ca         1 A1A      -0.178000
      6 C8          32.3080    40.6430    10.9920 ca         1 A1A       0.146100
      7 C10         30.4210    39.1150    11.1610 ca         1 A1A      -0.056500
      8 C13         30.1100    38.8900     6.7610 ca         1 A1A      -0.051000
      9 C15         30.0020    39.4140     4.3880 ca         1 A1A       0.150100
     10 C17         28.0030    39.5790     5.7650 ca         1 A1A      -0.051000
     11 C20         23.8590    37.4380    12.0510 c6         1 A1A      -0.095400
     12 C21         22.7700    38.4650    11.7230 c6         1 A1A      -0.023100
     13 C22         23.4850    38.1470     9.2610 ca         1 A1A       0.280000
     14 C24         22.1540    40.1150     9.9370 ca         1 A1A      -0.100000
     15 C26         22.7370    39.8260     7.6120 ca         1 A1A      -0.100000
     16 C1          26.8160    37.0460     8.8210 c5         1 A1A      -0.348700
     17 C11         28.0770    39.0460     8.2160 cf         1 A1A      -0.066400
     18 C12         28.7380    39.1810     6.9020 ca         1 A1A      -0.083800
     19 C14         30.7380    39.0090     5.5090 ca         1 A1A      -0.179500
     20 C16         28.6340    39.6980     4.5140 ca         1 A1A      -0.179500
     21 C18         26.6300    38.5280     8.3930 c5         1 A1A       0.214500
     22 C19         23.8960    36.3340    10.9800 c6         1 A1A       0.216800
     23 C2          27.3130    37.2160    10.3110 c5         1 A1A      -0.072400
     24 C23         22.8210    38.9170    10.2630 ca         1 A1A      -0.080300
     25 C25         22.1190    40.5750     8.6170 ca         1 A1A      -0.116000
     26 C27         23.3990    38.6270     7.9270 ca         1 A1A      -0.136000
     27 C3          27.3680    38.7790    10.4100 c5         1 A1A       0.176500
     28 C9          31.6520    39.5900    11.6490 ca         1 A1A      -0.178000
     29 O1          24.7860    35.9990     7.2580 o          1 A1A      -0.532500
     30 O2          33.5000    41.1090    11.4590 oh         1 A1A      -0.530100
     31 O4          26.2500    39.1590     9.6130 os         1 A1A      -0.420000
     32 S1          25.2600    35.9860     8.6440 s6         1 A1A       1.214100
     33 H6          30.0610    41.2150     8.4860 ha         1 A1A       0.118000
     34 H7          32.2400    42.0430     9.3480 ha         1 A1A       0.123000
     35 H10         29.9220    38.2980    11.6760 ha         1 A1A       0.118000
     36 H11         30.6900    38.5570     7.6180 ha         1 A1A       0.119500
     37 H15         26.9450    39.8140     5.8480 ha         1 A1A       0.119500
     38 H19         24.8330    37.9410    12.1000 hc         1 A1A       0.050700
     39 H18         23.6790    36.9990    13.0410 hc         1 A1A       0.050700
     40 H20         22.8700    39.3290    12.3950 hc         1 A1A       0.053200
     41 H21         21.7820    38.0280    11.9260 hc         1 A1A       0.053200
     42 H22         21.6540    40.6890    10.7140 ha         1 A1A       0.111000
     43 H24         22.6980    40.1690     6.5800 ha         1 A1A       0.117000
     44 H1          27.5580    36.5410     8.1950 h1         1 A1A       0.121700
     45 H12         31.7970    38.7820     5.4100 ha         1 A1A       0.123500
     46 H14         28.0530    40.0120     3.6500 ha         1 A1A       0.123500
     47 H3          25.9480    38.7330     7.5590 h1         1 A1A       0.114700
     48 H17         22.9410    35.7880    10.9820 h1         1 A1A       0.072700
     49 H16         24.6710    35.6200    11.2920 h1         1 A1A       0.072700
     50 H4          26.6350    36.7900    11.0540 hc         1 A1A       0.065200
     51 H5          28.2940    36.7550    10.4770 hc         1 A1A       0.065200
     52 H23         21.6020    41.5000     8.3720 ha         1 A1A       0.116000
     53 H25         23.8330    38.0940     7.0970 ha         1 A1A       0.151000
     54 H2          27.3500    39.2160    11.4190 h1         1 A1A       0.101700
     55 H9          32.0880    39.1360    12.5360 ha         1 A1A       0.123000
     56 H8          33.7460    40.5920    12.2550 ho         1 A1A       0.466000
     57 H13         29.9570    39.8150     2.5170 ho         1 A1A       0.467000
     58 O3          30.6210    39.5250     3.1790 oh         1 A1A      -0.530100
     59 O5          25.4730    34.6930     9.3050 o          1 A1A      -0.532500
@<TRIPOS>BOND
     1     1    13 1   
     2     1    22 1   
     3     1    32 1   
     4     2     3 1   
     5     2    17 2   
     6     2    27 1   
     7     3     4 ar  
     8     3     7 ar  
     9     4     5 ar  
    10     4    33 1   
    11     5     6 ar  
    12     5    34 1   
    13     6    28 ar  
    14     6    30 1   
    15     7    28 ar  
    16     7    35 1   
    17     8    18 ar  
    18     8    19 ar  
    19     8    36 1   
    20     9    19 ar  
    21     9    20 ar  
    22     9    58 1   
    23    10    18 ar  
    24    10    20 ar  
    25    10    37 1   
    26    11    12 1   
    27    11    22 1   
    28    11    38 1   
    29    11    39 1   
    30    12    24 1   
    31    12    40 1   
    32    12    41 1   
    33    13    24 ar  
    34    13    26 ar  
    35    14    24 ar  
    36    14    25 ar  
    37    14    42 1   
    38    15    25 ar  
    39    15    26 ar  
    40    15    43 1   
    41    16    21 1   
    42    16    23 1   
    43    16    32 1   
    44    16    44 1   
    45    17    18 1   
    46    17    21 1   
    47    19    45 1   
    48    20    46 1   
    49    21    31 1   
    50    21    47 1   
    51    22    48 1   
    52    22    49 1   
    53    23    27 1   
    54    23    50 1   
    55    23    51 1   
    56    25    52 1   
    57    26    53 1   
    58    27    31 1   
    59    27    54 1   
    60    28    55 1   
    61    29    32 2   
    62    30    56 1   
    63    32    59 2   
    64    57    58 1   
@<TRIPOS>SUBSTRUCTURE
     1 A1A         1 TEMP              0 ****  ****    0 ROOT
