@<TRIPOS>MOLECULE
A1A
  140   143     1     0     0
SMALL
No Charge or Current Charge


@<TRIPOS>ATOM
      1 C10        159.2800   141.7460   156.9970 c5         1 A1A       0.173300
      2 N12        161.5650   142.4290   156.0660 n8         1 A1A      -0.997200
      3 C13        158.3420   141.7550   155.7370 c5         1 A1A       0.166300
      4 C15        157.0280   141.2020   156.3510 c5         1 A1A       0.084300
      5 C17        156.9250   145.5730   158.3980 c3         1 A1A       0.025500
      6 C24        161.1420   146.3450   156.1750 ca         1 A1A      -0.116000
      7 C26        163.3320   145.8230   157.0990 ca         1 A1A      -0.114000
      8 C28        163.6850   145.5300   159.5950 c3         1 A1A       0.146300
      9 C02        152.5290   143.2950   158.5620 c5         1 A1A       0.100300
     10 C03        153.9930   142.8050   158.7390 c5         1 A1A       0.081300
     11 C05        154.7290   144.1820   158.7520 c5         1 A1A       0.158300
     12 C06        156.2870   144.1650   158.5950 c3         1 A1A       0.193300
     13 C08        157.0430   141.9800   157.7130 c5         1 A1A       0.357300
     14 C11        160.4420   142.7830   156.9760 c3         1 A1A       0.128800
     15 C18        156.4740   146.5720   159.5310 c          1 A1A       0.714000
     16 C23        160.5860   146.3370   157.4700 ca         1 A1A      -0.069300
     17 C25        162.5110   146.0890   155.9920 ca         1 A1A      -0.133000
     18 C27        162.7890   145.8100   158.3980 ca         1 A1A      -0.129300
     19 C30        165.7070   146.6780   160.5710 c          1 A1A       0.597100
     20 C31        166.4560   148.0490   160.6600 c3         1 A1A       0.031700
     21 C34        165.3810   150.0710   157.5370 c3         1 A1A      -0.156400
     22 C35        164.1620   149.4060   156.8550 c3         1 A1A      -0.063400
     23 C36        163.2860   150.3880   156.0480 c3         1 A1A      -0.078400
     24 C37        162.0290   149.7010   155.4740 c3         1 A1A      -0.074400
     25 C38        161.1150   150.6430   154.6550 c3         1 A1A      -0.074400
     26 C39        159.8600   149.9450   154.0750 c3         1 A1A      -0.072400
     27 C40        158.7950   149.5660   155.1350 c3         1 A1A      -0.074400
     28 C41        157.6500   148.6710   154.6050 c3         1 A1A      -0.073400
     29 C42        156.7530   149.3320   153.5340 c3         1 A1A      -0.075400
     30 C43        155.5970   148.4150   153.0760 c3         1 A1A      -0.076400
     31 C44        154.6830   149.0710   152.0190 c3         1 A1A      -0.075400
     32 C45        153.5410   148.1390   151.5490 c3         1 A1A      -0.072400
     33 C46        152.5380   148.7940   150.5690 c3         1 A1A      -0.073400
     34 C47        153.1440   149.1990   149.2040 c3         1 A1A      -0.076400
     35 C48        152.0950   149.7610   148.2230 c3         1 A1A      -0.089100
     36 C50        166.4500   148.6590   162.0860 c3         1 A1A      -0.082400
     37 C51        167.2080   147.8310   163.1510 c3         1 A1A      -0.075400
     38 C52        167.2780   148.5320   164.5260 c3         1 A1A      -0.078400
     39 C53        168.0250   147.6970   165.5880 c3         1 A1A       0.148800
     40 C56        161.4160   146.0710   158.5770 ca         1 A1A      -0.066000
     41 C58        152.7340   144.4740   157.5330 c5         1 A1A       0.339700
     42 C60        151.1730   143.9980   155.6680 c          1 A1A       0.609000
     43 C62        151.8870   142.9390   153.5860 c          1 A1A       0.594200
     44 C63        153.2370   142.9160   154.1360 cc         1 A1A      -0.424200
     45 C64        153.5240   143.4050   155.3900 cd         1 A1A       0.028600
     46 N21        158.4170   145.4390   158.2420 n7         1 A1A      -0.835400
     47 N29        164.5010   146.6990   159.9010 ns         1 A1A      -0.495900
     48 N32        165.8980   149.0340   159.7000 ns         1 A1A      -0.524900
     49 N54        168.0750   148.3940   166.8870 n8         1 A1A      -0.996200
     50 N59        152.4860   143.9240   156.1690 n          1 A1A      -0.330000
     51 N61        150.9740   143.4930   154.4210 ns         1 A1A      -0.473500
     52 O01        152.0190   143.7360   159.8310 oh         1 A1A      -0.695000
     53 O04        154.1540   142.0500   159.9520 oh         1 A1A      -0.693000
     54 O07        156.6520   143.3470   157.4450 os         1 A1A      -0.524000
     55 O09        158.4190   141.9970   158.1420 os         1 A1A      -0.448000
     56 O14        158.7600   140.8840   154.6790 oh         1 A1A      -0.687000
     57 O16        157.0910   139.7600   156.4880 oh         1 A1A      -0.689000
     58 O19        156.4140   146.1690   160.6870 o          1 A1A      -0.708500
     59 O20        156.1770   147.7160   159.2090 o          1 A1A      -0.708500
     60 O49        166.9500   148.2520   157.8380 o          1 A1A      -0.585100
     61 O55        166.1750   145.6330   161.0050 o          1 A1A      -0.598100
     62 O57        154.1090   144.9150   157.6660 os         1 A1A      -0.414000
     63 O65        151.5890   142.5150   152.4850 o          1 A1A      -0.550000
     64 O66        150.2430   144.4720   156.2990 o          1 A1A      -0.562000
     65 H1         159.7130   140.7460   157.1370 h1         1 A1A       0.074700
     66 H2         162.2660   143.1790   156.1050 hn         1 A1A       0.391000
     67 H3         162.0610   141.6110   156.4370 hn         1 A1A       0.391000
     68 H5         158.2030   142.7800   155.3650 h1         1 A1A       0.056700
     69 H6         156.1580   141.4870   155.7440 h1         1 A1A       0.046700
     70 H7         156.5140   145.9690   157.4600 h1         1 A1A       0.030700
     71 H8         158.9890   147.4850   158.3300 h1         1 A1A       0.044700
     72 H9         158.6500   146.8720   156.7040 h1         1 A1A       0.044700
     73 H10        160.5140   146.5510   155.3110 ha         1 A1A       0.107000
     74 H11        164.3930   145.6320   156.9490 ha         1 A1A       0.118000
     75 H12        163.0810   145.2750   160.4750 h1         1 A1A       0.066700
     76 H13        164.3390   144.6750   159.3700 h1         1 A1A       0.066700
     77 H14        151.8870   142.5030   158.1510 h1         1 A1A       0.054700
     78 H15        154.2980   142.2050   157.8710 h1         1 A1A       0.040700
     79 H16        154.4970   144.7050   159.6890 h1         1 A1A       0.125700
     80 H17        156.7080   143.7380   159.5170 h1         1 A1A       0.087700
     81 H18        156.3920   141.5190   158.4660 h2         1 A1A       0.069700
     82 H19        160.8410   142.9000   157.9930 h1         1 A1A       0.050200
     83 H20        160.0350   143.7520   156.6580 h1         1 A1A       0.050200
     84 H21        162.9350   146.1000   154.9910 ha         1 A1A       0.099000
     85 H22        167.4980   147.8500   160.3750 h1         1 A1A       0.090700
     86 H23        166.0330   150.4900   156.7620 hc         1 A1A       0.056700
     87 H24        165.0130   150.8640   158.1980 hc         1 A1A       0.056700
     88 H25        163.5420   148.9280   157.6240 hc         1 A1A       0.056200
     89 H26        164.5110   148.6060   156.1900 hc         1 A1A       0.056200
     90 H27        163.8770   150.8180   155.2290 hc         1 A1A       0.035700
     91 H28        162.9770   151.2190   156.6950 hc         1 A1A       0.035700
     92 H29        161.4640   149.2730   156.3090 hc         1 A1A       0.040200
     93 H30        162.3400   148.8640   154.8360 hc         1 A1A       0.040200
     94 H31        161.6980   151.0590   153.8230 hc         1 A1A       0.036700
     95 H32        160.8060   151.4910   155.2770 hc         1 A1A       0.036700
     96 H33        160.1700   149.0460   153.5280 hc         1 A1A       0.035700
     97 H34        159.4020   150.6170   153.3390 hc         1 A1A       0.035700
     98 H35        158.3710   150.4820   155.5660 hc         1 A1A       0.041200
     99 H36        159.2760   149.0330   155.9610 hc         1 A1A       0.041200
    100 H37        157.0220   148.3770   155.4560 hc         1 A1A       0.036700
    101 H38        158.0770   147.7450   154.2000 hc         1 A1A       0.036700
    102 H39        157.3590   149.6000   152.6600 hc         1 A1A       0.037700
    103 H40        156.3370   150.2650   153.9380 hc         1 A1A       0.037700
    104 H41        154.9940   148.1320   153.9480 hc         1 A1A       0.036200
    105 H42        156.0170   147.4890   152.6630 hc         1 A1A       0.036200
    106 H43        155.2940   149.3660   151.1580 hc         1 A1A       0.037700
    107 H44        154.2510   149.9890   152.4370 hc         1 A1A       0.037700
    108 H45        152.9840   147.7930   152.4290 hc         1 A1A       0.036200
    109 H46        153.9710   147.2450   151.0800 hc         1 A1A       0.036200
    110 H47        152.0940   149.6770   151.0450 hc         1 A1A       0.036700
    111 H48        151.7180   148.0870   150.3940 hc         1 A1A       0.036700
    112 H49        153.6270   148.3270   148.7460 hc         1 A1A       0.037200
    113 H50        153.9220   149.9570   149.3530 hc         1 A1A       0.037200
    114 H51        152.5720   150.0440   147.2760 hc         1 A1A       0.030033
    115 H52        151.3230   149.0120   148.0080 hc         1 A1A       0.030033
    116 H53        151.6100   150.6510   148.6420 hc         1 A1A       0.030033
    117 H54        166.9060   149.6560   162.0370 hc         1 A1A       0.042700
    118 H55        165.4120   148.8040   162.4110 hc         1 A1A       0.042700
    119 H56        166.7170   146.8590   163.2800 hc         1 A1A       0.054700
    120 H57        168.2270   147.6320   162.7960 hc         1 A1A       0.054700
    121 H58        167.7790   149.5020   164.4100 hc         1 A1A       0.043200
    122 H59        166.2590   148.7360   164.8780 hc         1 A1A       0.043200
    123 H60        167.5170   146.7330   165.7250 h1         1 A1A       0.030200
    124 H61        169.0530   147.5040   165.2510 h1         1 A1A       0.030200
    125 H62        160.9870   146.0650   159.5770 ha         1 A1A       0.141000
    126 H63        152.0330   145.3010   157.7090 h2         1 A1A       0.121700
    127 H64        154.0010   142.4970   153.4900 ha         1 A1A       0.217000
    128 H65        154.5180   143.4300   155.8350 h4         1 A1A       0.251000
    129 H66        158.5680   144.6440   157.6130 hn         1 A1A       0.391000
    130 H68        164.1990   147.5980   159.5510 hn         1 A1A       0.309500
    131 H69        165.2590   149.7440   160.0420 hn         1 A1A       0.313500
    132 H70        168.6350   147.8360   167.5440 hn         1 A1A       0.389000
    133 H71        168.6190   149.2580   166.7800 hn         1 A1A       0.389000
    134 H73        150.0300   143.5370   154.0730 hn         1 A1A       0.332500
    135 H74        152.5320   143.2090   160.4940 ho         1 A1A       0.522000
    136 H75        153.8910   141.1170   159.7640 ho         1 A1A       0.499000
    137 H76        158.3620   140.0190   154.9440 ho         1 A1A       0.502000
    138 H77        156.2310   139.4550   156.8610 ho         1 A1A       0.493000
    139 C22        159.1010   146.6120   157.6710 c3         1 A1A       0.208100
    140 C33        166.1620   149.0340   158.3470 c          1 A1A       0.594100
@<TRIPOS>BOND
     1     1     3 1   
     2     1    14 1   
     3     1    55 1   
     4     1    65 1   
     5     2    14 1   
     6     2    66 1   
     7     2    67 1   
     8     3     4 1   
     9     3    56 1   
    10     3    68 1   
    11     4    13 1   
    12     4    57 1   
    13     4    69 1   
    14     5    12 1   
    15     5    15 1   
    16     5    46 1   
    17     5    70 1   
    18     6    16 ar  
    19     6    17 ar  
    20     6    73 1   
    21     7    17 ar  
    22     7    18 ar  
    23     7    74 1   
    24     8    18 1   
    25     8    47 1   
    26     8    75 1   
    27     8    76 1   
    28     9    10 1   
    29     9    41 1   
    30     9    52 1   
    31     9    77 1   
    32    10    11 1   
    33    10    53 1   
    34    10    78 1   
    35    11    12 1   
    36    11    62 1   
    37    11    79 1   
    38    12    54 1   
    39    12    80 1   
    40    13    54 1   
    41    13    55 1   
    42    13    81 1   
    43    14    82 1   
    44    14    83 1   
    45    15    58 1   
    46    15    59 1   
    47    16    40 ar  
    48    16   139 1   
    49    17    84 1   
    50    18    40 ar  
    51    19    20 1   
    52    19    47 1   
    53    19    61 2   
    54    20    36 1   
    55    20    48 1   
    56    20    85 1   
    57    21    22 1   
    58    21    86 1   
    59    21    87 1   
    60    21   140 1   
    61    22    23 1   
    62    22    88 1   
    63    22    89 1   
    64    23    24 1   
    65    23    90 1   
    66    23    91 1   
    67    24    25 1   
    68    24    92 1   
    69    24    93 1   
    70    25    26 1   
    71    25    94 1   
    72    25    95 1   
    73    26    27 1   
    74    26    96 1   
    75    26    97 1   
    76    27    28 1   
    77    27    98 1   
    78    27    99 1   
    79    28    29 1   
    80    28   100 1   
    81    28   101 1   
    82    29    30 1   
    83    29   102 1   
    84    29   103 1   
    85    30    31 1   
    86    30   104 1   
    87    30   105 1   
    88    31    32 1   
    89    31   106 1   
    90    31   107 1   
    91    32    33 1   
    92    32   108 1   
    93    32   109 1   
    94    33    34 1   
    95    33   110 1   
    96    33   111 1   
    97    34    35 1   
    98    34   112 1   
    99    34   113 1   
   100    35   114 1   
   101    35   115 1   
   102    35   116 1   
   103    36    37 1   
   104    36   117 1   
   105    36   118 1   
   106    37    38 1   
   107    37   119 1   
   108    37   120 1   
   109    38    39 1   
   110    38   121 1   
   111    38   122 1   
   112    39    49 1   
   113    39   123 1   
   114    39   124 1   
   115    40   125 1   
   116    41    50 1   
   117    41    62 1   
   118    41   126 1   
   119    42    50 1   
   120    42    51 1   
   121    42    64 2   
   122    43    44 1   
   123    43    51 1   
   124    43    63 2   
   125    44    45 2   
   126    44   127 1   
   127    45    50 1   
   128    45   128 1   
   129    46   129 1   
   130    46   139 1   
   131    47   130 1   
   132    48   131 1   
   133    48   140 1   
   134    49   132 1   
   135    49   133 1   
   136    51   134 1   
   137    52   135 1   
   138    53   136 1   
   139    56   137 1   
   140    57   138 1   
   141    60   140 2   
   142    71   139 1   
   143    72   139 1   
@<TRIPOS>SUBSTRUCTURE
     1 A1A         1 TEMP              0 ****  ****    0 ROOT
