@<TRIPOS>MOLECULE
A1A
   24    24     1     0     0
SMALL
abcg2


@<TRIPOS>ATOM
      1 C01        367.6250   323.1770   434.2810 c3         1 A1A       0.126600
      2 C02        368.4110   323.2480   432.9800 c3         1 A1A       0.154300
      3 C03        368.3340   324.6390   432.3440 c5         1 A1A       0.134300
      4 C04        368.6710   324.6780   430.8420 c5         1 A1A       0.158300
      5 C05        367.3220   324.3750   430.2180 c5         1 A1A       0.143300
      6 C06        366.3380   325.0330   431.1880 c5         1 A1A       0.342300
      7 O07        367.0350   325.1990   432.4060 os         1 A1A      -0.480000
      8 O09        367.2510   324.8610   428.9060 oh         1 A1A      -0.697000
      9 O10        369.6300   323.7680   430.3890 oh         1 A1A      -0.695000
     10 O11        369.7820   323.0110   433.2150 oh         1 A1A      -0.736000
     11 O12        367.8750   321.9040   434.8420 oh         1 A1A      -0.678000
     12 H1         367.9520   323.9830   434.9520 h1         1 A1A       0.040200
     13 H2         366.5600   323.3240   434.0810 h1         1 A1A       0.040200
     14 H3         367.9980   322.4890   432.2960 h1         1 A1A       0.058700
     15 H4         369.0000   325.2910   432.9190 h1         1 A1A       0.085700
     16 H5         368.9510   325.7130   430.5910 h1         1 A1A       0.057700
     17 H6         367.1610   323.2880   430.2480 h1         1 A1A       0.072700
     18 O1         365.2200   324.2260   431.3380 oh         1 A1A      -0.725000
     19 H8         366.0540   326.0320   430.8330 h2         1 A1A       0.060700
     20 H9         366.4620   324.5020   428.4880 ho         1 A1A       0.515000
     21 H10        370.4410   323.8930   430.8930 ho         1 A1A       0.524000
     22 H11        369.8540   322.1970   433.7260 ho         1 A1A       0.529000
     23 H12        367.5940   321.9140   435.7610 ho         1 A1A       0.451000
     24 H7         364.5150   324.7290   431.7580 ho         1 A1A       0.520000
@<TRIPOS>BOND
     1     1     2 1   
     2     1    11 1   
     3     1    12 1   
     4     1    13 1   
     5     2     3 1   
     6     2    10 1   
     7     2    14 1   
     8     3     4 1   
     9     3     7 1   
    10     3    15 1   
    11     4     5 1   
    12     4     9 1   
    13     4    16 1   
    14     5     6 1   
    15     5     8 1   
    16     5    17 1   
    17     6     7 1   
    18     6    18 1   
    19     6    19 1   
    20     8    20 1   
    21     9    21 1   
    22    10    22 1   
    23    11    23 1   
    24    18    24 1   
@<TRIPOS>SUBSTRUCTURE
     1 A1A         1 TEMP              0 ****  ****    0 ROOT
