@<TRIPOS>MOLECULE
A1A
   24    24     1     0     0
SMALL
No Charge or Current Charge


@<TRIPOS>ATOM
      1 C01        367.8540   323.2180   434.4180 c3         1 A1A       0.126600
      2 C02        368.2270   323.2940   432.9160 c3         1 A1A       0.154300
      3 C03        368.2310   324.7550   432.3500 c5         1 A1A       0.134300
      4 C04        368.7090   324.9140   430.8690 c5         1 A1A       0.158300
      5 C05        367.4430   324.3700   430.1390 c5         1 A1A       0.143300
      6 C06        366.3090   325.0280   431.0140 c5         1 A1A       0.342300
      7 O07        366.8810   325.2830   432.3110 os         1 A1A      -0.480000
      8 O09        367.3760   324.6960   428.7330 oh         1 A1A      -0.697000
      9 O10        369.9070   324.1730   430.5830 oh         1 A1A      -0.695000
     10 O11        369.5230   322.6850   432.7610 oh         1 A1A      -0.736000
     11 O12        368.0950   321.8820   434.9040 oh         1 A1A      -0.678000
     12 H1         368.4540   323.9450   434.9820 h1         1 A1A       0.040200
     13 H2         366.7970   323.4900   434.5390 h1         1 A1A       0.040200
     14 H3         367.4790   322.7050   432.3690 h1         1 A1A       0.058700
     15 H4         368.8340   325.3830   433.0200 h1         1 A1A       0.085700
     16 H5         368.8560   325.9780   430.6340 h1         1 A1A       0.057700
     17 H6         367.3970   323.2770   430.2500 h1         1 A1A       0.072700
     18 O1         365.1870   324.1820   431.1690 oh         1 A1A      -0.725000
     19 H8         366.0030   325.9870   430.5730 h2         1 A1A       0.060700
     20 H9         366.5310   324.3160   428.3940 ho         1 A1A       0.515000
     21 H10        369.9560   323.4980   431.3210 ho         1 A1A       0.524000
     22 H11        369.5360   322.0080   433.4890 ho         1 A1A       0.529000
     23 H12        367.7590   321.8450   435.8290 ho         1 A1A       0.451000
     24 H7         364.6910   324.5640   431.9280 ho         1 A1A       0.520000
@<TRIPOS>BOND
     1     1     2 1   
     2     1    11 1   
     3     1    12 1   
     4     1    13 1   
     5     2     3 1   
     6     2    10 1   
     7     2    14 1   
     8     3     4 1   
     9     3     7 1   
    10     3    15 1   
    11     4     5 1   
    12     4     9 1   
    13     4    16 1   
    14     5     6 1   
    15     5     8 1   
    16     5    17 1   
    17     6     7 1   
    18     6    18 1   
    19     6    19 1   
    20     8    20 1   
    21     9    21 1   
    22    10    22 1   
    23    11    23 1   
    24    18    24 1   
@<TRIPOS>SUBSTRUCTURE
     1 A1A         1 TEMP              0 ****  ****    0 ROOT
