@<TRIPOS>MOLECULE
A1A
   34    36     1     0     0
SMALL
abcg2


@<TRIPOS>ATOM
      1 N1          -0.0590    15.4100    -0.6830 nb         1 A1A      -0.308000
      2 N3          -3.4370    15.8570     1.3820 na         1 A1A      -0.157100
      3 C4          -0.0810    15.4240    -3.4830 c3         1 A1A       0.241800
      4 C5          -1.2290    15.5250    -1.3130 ca         1 A1A       0.455900
      5 C6          -0.0380    15.4530     0.6500 ca         1 A1A       0.197900
      6 C7          -2.2150    15.7000     0.8470 ca         1 A1A       0.159500
      7 C8          -3.7970    15.8270    -0.7130 cc         1 A1A       0.384800
      8 C10         -0.6870    13.2390    -4.5350 c6         1 A1A      -0.301400
      9 S           -0.1950    11.5700    -4.9520 s6         1 A1A       1.081000
     10 O           -1.1570    11.0190    -5.9060 o          1 A1A      -0.516000
     11 C3           0.3960    13.9950    -3.7670 c6         1 A1A      -0.057700
     12 C2           1.7100    14.0490    -4.5450 c6         1 A1A      -0.088400
     13 C1           2.2930    12.6780    -4.8730 c6         1 A1A      -0.055400
     14 C            1.3740    11.8480    -5.7600 c6         1 A1A      -0.299400
     15 N           -1.2570    15.5070    -2.6500 nu         1 A1A      -0.921100
     16 C9          -2.4010    15.6750    -0.5360 ca         1 A1A      -0.396900
     17 N4          -4.3960    15.9330     0.4470 nd         1 A1A      -0.518100
     18 N2          -1.0450    15.5930     1.4870 nb         1 A1A      -0.225000
     19 H           -3.6790    15.9190     2.3590 hn         1 A1A       0.389000
     20 H9           0.7300    15.9800    -3.0130 h1         1 A1A       0.059700
     21 H8          -0.3120    15.9240    -4.4250 h1         1 A1A       0.059700
     22 H11          0.9460    15.3610     1.0980 h5         1 A1A       0.047100
     23 H12         -4.3690    15.8610    -1.6280 h4         1 A1A       0.045800
     24 H14         -1.6120    13.1400    -3.9610 h1         1 A1A       0.099700
     25 H13         -0.9190    13.7350    -5.4810 h1         1 A1A       0.099700
     26 H7           0.5680    13.4930    -2.8100 hc         1 A1A       0.093700
     27 H6           2.4410    14.6130    -3.9620 hc         1 A1A       0.053700
     28 H5           1.5560    14.6060    -5.4760 hc         1 A1A       0.053700
     29 H4           2.5200    12.1310    -3.9550 hc         1 A1A       0.065200
     30 H3           3.2400    12.8010    -5.4010 hc         1 A1A       0.065200
     31 H2           1.7840    10.8590    -5.9780 h1         1 A1A       0.103200
     32 H1           1.1620    12.3520    -6.7040 h1         1 A1A       0.103200
     33 H10         -2.1500    15.6070    -3.1030 hn         1 A1A       0.500000
     34 O1           0.0570    10.8270    -3.7150 o          1 A1A      -0.516000
@<TRIPOS>BOND
     1     1     4 ar  
     2     1     5 ar  
     3     2     6 1   
     4     2    17 1   
     5     2    19 1   
     6     3    11 1   
     7     3    15 1   
     8     3    20 1   
     9     3    21 1   
    10     4    15 1   
    11     4    16 ar  
    12     5    18 ar  
    13     5    22 1   
    14     6    16 ar  
    15     6    18 ar  
    16     7    16 1   
    17     7    17 2   
    18     7    23 1   
    19     8     9 1   
    20     8    11 1   
    21     8    24 1   
    22     8    25 1   
    23     9    10 2   
    24     9    14 1   
    25     9    34 2   
    26    11    12 1   
    27    11    26 1   
    28    12    13 1   
    29    12    27 1   
    30    12    28 1   
    31    13    14 1   
    32    13    29 1   
    33    13    30 1   
    34    14    31 1   
    35    14    32 1   
    36    15    33 1   
@<TRIPOS>SUBSTRUCTURE
     1 A1A         1 TEMP              0 ****  ****    0 ROOT
