@<TRIPOS>MOLECULE
A1A
   86    89     1     0     0
SMALL
abcg2


@<TRIPOS>ATOM
      1 O22         19.5050    23.3580    16.9400 o          1 A1A      -0.552000
      2 C21         19.2100    24.4420    17.4030 c          1 A1A       0.636100
      3 O23         19.7650    25.5970    17.0170 os         1 A1A      -0.436100
      4 C24         20.7000    25.5560    15.9430 c5         1 A1A       0.168300
      5 C28         21.3960    26.9060    15.8350 c5         1 A1A       0.154300
      6 C41         22.0090    27.5710    17.0600 c5         1 A1A       0.184300
      7 C45         23.0800    26.7040    17.7280 c5         1 A1A      -0.110400
      8 C44         22.3400    26.0780    18.9070 c5         1 A1A      -0.111400
      9 C43         21.3120    27.1480    19.2500 c5         1 A1A       0.159600
     10 O42         21.0640    27.8830    18.0620 os         1 A1A      -0.438000
     11 O27         20.4350    27.7540    15.2440 os         1 A1A      -0.439000
     12 C26         19.6160    26.9970    14.3530 c5         1 A1A       0.168300
     13 C51         18.1580    27.3270    14.6020 c3         1 A1A      -0.095100
     14 C25         19.9800    25.5210    14.6020 c5         1 A1A      -0.139400
     15 N20         18.3030    24.6610    18.3700 ns         1 A1A      -0.498900
     16 C19         17.4990    23.6150    18.9620 c3         1 A1A       0.142700
     17 C32         17.7000    23.6010    20.4820 c3         1 A1A      -0.036100
     18 C38         19.1470    23.4240    20.8570 ca         1 A1A      -0.076300
     19 C37         19.8330    22.2480    20.5560 ca         1 A1A      -0.100500
     20 C36         21.1710    22.0970    20.8950 ca         1 A1A      -0.116000
     21 C35         21.8490    23.1220    21.5440 ca         1 A1A      -0.116000
     22 C34         21.1770    24.2970    21.8490 ca         1 A1A      -0.116000
     23 C33         19.8390    24.4430    21.5060 ca         1 A1A      -0.100500
     24 C17         16.0420    23.7920    18.5290 c3         1 A1A       0.147300
     25 O18         15.5340    24.9280    19.1870 oh         1 A1A      -0.660000
     26 C16         15.1450    22.5820    18.8120 c3         1 A1A       0.172800
     27 N11         15.4670    21.4210    17.9760 n3         1 A1A      -0.716500
     28 C12         14.5730    21.2120    16.8300 c3         1 A1A       0.194800
     29 C13         14.7790    22.2200    15.7020 c3         1 A1A      -0.058700
     30 C15         13.7380    21.9500    14.6190 c3         1 A1A      -0.092100
     31 C14         16.1900    22.1490    15.1350 c3         1 A1A      -0.092100
     32 S8          15.9450    20.0430    18.7680 sy         1 A1A       1.160600
     33 O9          16.8730    20.4520    19.8110 o          1 A1A      -0.534000
     34 O10         16.3950    19.0950    17.7630 o          1 A1A      -0.534000
     35 C5          14.4920    19.3990    19.5350 ca         1 A1A      -0.353500
     36 C4          14.1430    19.8000    20.8240 ca         1 A1A       0.021500
     37 C3          12.9490    19.3810    21.3710 ca         1 A1A      -0.198000
     38 C6          13.6480    18.5680    18.8120 ca         1 A1A       0.021500
     39 C7          12.4470    18.1460    19.3580 ca         1 A1A      -0.198000
     40 C2          12.0830    18.5600    20.6400 ca         1 A1A       0.198100
     41 O39         10.9400    18.2230    21.2450 os         1 A1A      -0.333100
     42 C40         10.0100    17.4100    20.5510 c3         1 A1A       0.145900
     43 H1          21.4090    24.7380    16.0790 h1         1 A1A       0.079700
     44 H2          22.2400    26.7430    15.1430 h1         1 A1A       0.035700
     45 H3          22.4510    28.5090    16.7030 h1         1 A1A       0.065700
     46 H4          23.5110    25.9660    17.0510 hc         1 A1A       0.052700
     47 H5          23.8990    27.3330    18.0830 hc         1 A1A       0.052700
     48 H6          21.8620    25.1400    18.6220 hc         1 A1A       0.059200
     49 H7          23.0000    25.8610    19.7460 hc         1 A1A       0.059200
     50 H8          21.6970    27.8210    20.0250 h1         1 A1A       0.041200
     51 H9          20.3750    26.7220    19.6160 h1         1 A1A       0.041200
     52 H10         19.8690    27.2720    13.3220 h1         1 A1A       0.043700
     53 H11         17.9720    28.3970    14.4910 hc         1 A1A       0.042367
     54 H12         17.5280    26.8080    13.8790 hc         1 A1A       0.042367
     55 H13         17.8440    27.0250    15.6020 hc         1 A1A       0.042367
     56 H14         19.1100    24.8640    14.5940 hc         1 A1A       0.066200
     57 H15         20.6680    25.1550    13.8380 hc         1 A1A       0.066200
     58 H16         18.1330    25.6110    18.6630 hn         1 A1A       0.335500
     59 H17         17.8460    22.6690    18.5490 h1         1 A1A       0.100700
     60 H18         17.3290    24.5320    20.9130 hc         1 A1A       0.063200
     61 H19         17.1050    22.7950    20.9150 hc         1 A1A       0.063200
     62 H20         19.3140    21.4370    20.0590 ha         1 A1A       0.120500
     63 H21         21.6840    21.1740    20.6540 ha         1 A1A       0.109500
     64 H22         22.8920    23.0030    21.8090 ha         1 A1A       0.107000
     65 H23         21.6940    25.1040    22.3520 ha         1 A1A       0.109500
     66 H24         19.3240    25.3660    21.7500 ha         1 A1A       0.120500
     67 H25         16.0640    23.9530    17.4430 h1         1 A1A       0.052700
     68 H26         14.7160    25.1970    18.7570 ho         1 A1A       0.443000
     69 H27         14.1070    22.8660    18.6090 h1         1 A1A       0.053200
     70 H28         15.1840    22.3360    19.8740 h1         1 A1A       0.053200
     71 H29         13.5310    21.2460    17.1710 h1         1 A1A       0.051200
     72 H30         14.7480    20.2180    16.4190 h1         1 A1A       0.051200
     73 H31         14.5950    23.2280    16.0870 hc         1 A1A       0.041700
     74 H32         12.7230    22.0280    15.0100 hc         1 A1A       0.040367
     75 H33         13.8360    22.6650    13.8020 hc         1 A1A       0.040367
     76 H34         13.8600    20.9480    14.2010 hc         1 A1A       0.040367
     77 H35         16.9510    22.3410    15.8910 hc         1 A1A       0.040367
     78 H36         16.3860    21.1600    14.7130 hc         1 A1A       0.040367
     79 H37         16.3250    22.8820    14.3380 hc         1 A1A       0.040367
     80 H38         14.8000    20.4290    21.4100 ha         1 A1A       0.134500
     81 H39         12.6750    19.6880    22.3720 ha         1 A1A       0.129000
     82 H40         13.9120    18.2360    17.8170 ha         1 A1A       0.134500
     83 H41         11.8120    17.4980    18.7700 ha         1 A1A       0.129000
     84 H42          9.1580    17.2850    21.2150 h1         1 A1A       0.047367
     85 H43          9.6710    17.8830    19.6260 h1         1 A1A       0.047367
     86 H44         10.4240    16.4270    20.3190 h1         1 A1A       0.047367
@<TRIPOS>BOND
     1     1     2 2   
     2     2     3 1   
     3     2    15 1   
     4     3     4 1   
     5     4     5 1   
     6     4    14 1   
     7     4    43 1   
     8     5     6 1   
     9     5    11 1   
    10     5    44 1   
    11     6     7 1   
    12     6    10 1   
    13     6    45 1   
    14     7     8 1   
    15     7    46 1   
    16     7    47 1   
    17     8     9 1   
    18     8    48 1   
    19     8    49 1   
    20     9    10 1   
    21     9    50 1   
    22     9    51 1   
    23    11    12 1   
    24    12    13 1   
    25    12    14 1   
    26    12    52 1   
    27    13    53 1   
    28    13    54 1   
    29    13    55 1   
    30    14    56 1   
    31    14    57 1   
    32    15    16 1   
    33    15    58 1   
    34    16    17 1   
    35    16    24 1   
    36    16    59 1   
    37    17    18 1   
    38    17    60 1   
    39    17    61 1   
    40    18    19 ar  
    41    18    23 ar  
    42    19    20 ar  
    43    19    62 1   
    44    20    21 ar  
    45    20    63 1   
    46    21    22 ar  
    47    21    64 1   
    48    22    23 ar  
    49    22    65 1   
    50    23    66 1   
    51    24    25 1   
    52    24    26 1   
    53    24    67 1   
    54    25    68 1   
    55    26    27 1   
    56    26    69 1   
    57    26    70 1   
    58    27    28 1   
    59    27    32 1   
    60    28    29 1   
    61    28    71 1   
    62    28    72 1   
    63    29    30 1   
    64    29    31 1   
    65    29    73 1   
    66    30    74 1   
    67    30    75 1   
    68    30    76 1   
    69    31    77 1   
    70    31    78 1   
    71    31    79 1   
    72    32    33 2   
    73    32    34 2   
    74    32    35 1   
    75    35    36 ar  
    76    35    38 ar  
    77    36    37 ar  
    78    36    80 1   
    79    37    40 ar  
    80    37    81 1   
    81    38    39 ar  
    82    38    82 1   
    83    39    40 ar  
    84    39    83 1   
    85    40    41 1   
    86    41    42 1   
    87    42    84 1   
    88    42    85 1   
    89    42    86 1   
@<TRIPOS>SUBSTRUCTURE
     1 A1A         1 TEMP              0 ****  ****    0 ROOT
