@<TRIPOS>MOLECULE
A1A
   61    65     1     0     0
SMALL
No Charge or Current Charge


@<TRIPOS>ATOM
      1 N1          12.6830   -17.8720    17.2010 na         1 A1A       0.140800
      2 N3           5.4910   -14.1820    15.8520 nb         1 A1A      -0.297000
      3 C4          10.6160   -17.1710    17.1160 cc         1 A1A      -0.159800
      4 C5           9.4460   -16.4080    16.7580 cc         1 A1A       0.035700
      5 C6           8.1360   -16.5310    17.1850 cd         1 A1A      -0.202200
      6 C7           7.3320   -15.5230    16.5290 ca         1 A1A      -0.250800
      7 C8           5.9730   -15.1990    16.5940 ca         1 A1A       0.429900
      8 C10          3.7690   -14.2560    18.6280 ca         1 A1A      -0.111300
      9 C13          3.8330   -11.8840    20.1910 ca         1 A1A       0.012700
     10 C15          4.4460   -14.2330    19.8630 ca         1 A1A      -0.009000
     11 C17          4.8840   -10.4040    22.0740 c6         1 A1A      -0.056400
     12 C22          6.3880   -13.5240    15.0760 ca         1 A1A       0.173900
     13 S            5.3800   -13.1110    22.2060 sy         1 A1A       1.049500
     14 O            4.8880   -14.2550    22.9840 o          1 A1A      -0.523000
     15 C16          4.8870   -11.5960    23.0530 c6         1 A1A      -0.305400
     16 C18          3.7900   -10.5730    20.9950 c6         1 A1A      -0.049100
     17 C12          3.1570   -11.9190    18.9560 ca         1 A1A      -0.131000
     18 C11          3.1270   -13.0880    18.1800 ca         1 A1A      -0.029000
     19 C14          4.4800   -13.0610    20.6460 ca         1 A1A      -0.246500
     20 C9           3.7270   -15.5290    17.7770 c3         1 A1A       0.286800
     21 C19          3.0090   -16.7170    18.4910 c3         1 A1A      -0.069700
     22 N2           5.0990   -15.9040    17.4080 nu         1 A1A      -0.920100
     23 N4           7.7150   -13.7830    14.9670 nb         1 A1A      -0.229000
     24 C23          8.1730   -14.8030    15.7150 ca         1 A1A       0.149500
     25 N5           9.4460   -15.3350    15.8500 na         1 A1A      -0.317400
     26 C1          10.7620   -18.2620    18.0050 cc         1 A1A       0.286300
     27 C            9.6550   -18.8870    18.8070 c3         1 A1A      -0.123400
     28 C3          11.8540   -16.9220    16.6010 cd         1 A1A      -0.164000
     29 N           12.0020   -18.7060    18.0750 nd         1 A1A      -0.525800
     30 C2          14.1270   -18.0310    16.9800 c3         1 A1A       0.073900
     31 H9           7.7640   -17.2600    17.8940 ha         1 A1A       0.203000
     32 H13          4.9530   -15.1310    20.2130 ha         1 A1A       0.126000
     33 H16          4.7050    -9.4710    22.6280 hc         1 A1A       0.066200
     34 H17          5.8700   -10.2940    21.5980 hc         1 A1A       0.066200
     35 H22          2.3810   -18.7830    18.1050 hc         1 A1A       0.038700
     36 H21          2.3090   -17.7320    16.6750 hc         1 A1A       0.038700
     37 H23          3.8720   -18.3320    17.2680 hc         1 A1A       0.038700
     38 H25          1.1200   -17.1720    19.5080 hc         1 A1A       0.038700
     39 H26          1.6830   -15.5190    19.7750 hc         1 A1A       0.038700
     40 H24          0.9650   -15.9670    18.2120 hc         1 A1A       0.038700
     41 H27          6.0020   -12.7010    14.4770 h5         1 A1A       0.041100
     42 H15          3.8850   -11.7840    23.4600 h1         1 A1A       0.105700
     43 H14          5.6020   -11.4590    23.8730 h1         1 A1A       0.105700
     44 H18          2.8040   -10.4900    21.4720 hc         1 A1A       0.063700
     45 H19          3.8520    -9.7220    20.3020 hc         1 A1A       0.063700
     46 H12          2.6470   -11.0300    18.5930 ha         1 A1A       0.116000
     47 H11          2.6000   -13.0840    17.2280 ha         1 A1A       0.124000
     48 H            3.1560   -15.3130    16.8610 h1         1 A1A       0.086700
     49 H20          3.6120   -17.0080    19.3600 hc         1 A1A       0.049700
     50 H10          5.5190   -16.6770    17.9150 hn         1 A1A       0.493000
     51 H1          10.2600   -14.9910    15.3580 hn         1 A1A       0.357000
     52 H4          10.0290   -19.7170    19.4180 hc         1 A1A       0.051367
     53 H3           9.2060   -18.1550    19.4870 hc         1 A1A       0.051367
     54 H2           8.8760   -19.2890    18.1500 hc         1 A1A       0.051367
     55 H8          12.2090   -16.1860    15.8890 h4         1 A1A       0.151000
     56 H7          14.3290   -19.0350    16.5880 h1         1 A1A       0.058033
     57 H5          14.4770   -17.2830    16.2590 h1         1 A1A       0.058033
     58 H6          14.6600   -17.8970    17.9290 h1         1 A1A       0.058033
     59 C20          2.8870   -17.9650    17.5780 c3         1 A1A      -0.087600
     60 C21          1.6100   -16.3170    19.0270 c3         1 A1A      -0.087600
     61 O1           6.8110   -12.9960    21.8930 o          1 A1A      -0.523000
@<TRIPOS>BOND
     1     1    28 1   
     2     1    29 1   
     3     1    30 1   
     4     2     7 ar  
     5     2    12 ar  
     6     3     4 1   
     7     3    26 1   
     8     3    28 2   
     9     4     5 2   
    10     4    25 1   
    11     5     6 1   
    12     5    31 1   
    13     6     7 ar  
    14     6    24 ar  
    15     7    22 1   
    16     8    10 ar  
    17     8    18 ar  
    18     8    20 1   
    19     9    16 1   
    20     9    17 ar  
    21     9    19 ar  
    22    10    19 ar  
    23    10    32 1   
    24    11    15 1   
    25    11    16 1   
    26    11    33 1   
    27    11    34 1   
    28    12    23 ar  
    29    12    41 1   
    30    13    14 2   
    31    13    15 1   
    32    13    19 1   
    33    13    61 2   
    34    15    42 1   
    35    15    43 1   
    36    16    44 1   
    37    16    45 1   
    38    17    18 ar  
    39    17    46 1   
    40    18    47 1   
    41    20    21 1   
    42    20    22 1   
    43    20    48 1   
    44    21    49 1   
    45    21    59 1   
    46    21    60 1   
    47    22    50 1   
    48    23    24 ar  
    49    24    25 1   
    50    25    51 1   
    51    26    27 1   
    52    26    29 2   
    53    27    52 1   
    54    27    53 1   
    55    27    54 1   
    56    28    55 1   
    57    30    56 1   
    58    30    57 1   
    59    30    58 1   
    60    35    59 1   
    61    36    59 1   
    62    37    59 1   
    63    38    60 1   
    64    39    60 1   
    65    40    60 1   
@<TRIPOS>SUBSTRUCTURE
     1 A1A         1 TEMP              0 ****  ****    0 ROOT
