@<TRIPOS>MOLECULE
A1A
  142   145     1     0     0
SMALL
No Charge or Current Charge


@<TRIPOS>ATOM
      1 C02        125.7370   146.2450   115.7300 c5         1 A1A       0.136300
      2 C03        124.2670   146.7520   115.5430 c5         1 A1A       0.139300
      3 C05        124.2790   147.9200   116.5740 c5         1 A1A       0.120300
      4 C06        122.8860   148.5330   116.9260 c3         1 A1A       0.205300
      5 C08        120.6410   147.6530   117.6530 c5         1 A1A       0.404300
      6 C10        119.7600   146.7140   119.6260 c5         1 A1A       0.145300
      7 C11        120.1110   146.4130   121.1200 c3         1 A1A       0.146800
      8 C13        119.9530   145.5460   118.6090 c5         1 A1A       0.094300
      9 C15        119.8400   146.3450   117.2800 c5         1 A1A       0.130300
     10 C17        122.9020   149.6400   118.0410 c3         1 A1A       0.019500
     11 C18        124.2310   150.4770   117.9970 c          1 A1A       0.682000
     12 C23        120.0360   152.0380   119.0190 ca         1 A1A      -0.044300
     13 C24        120.0110   153.4430   119.1280 ca         1 A1A      -0.096500
     14 C25        118.8050   154.1470   118.9630 ca         1 A1A      -0.107000
     15 C26        117.6100   153.4550   118.6840 ca         1 A1A      -0.145300
     16 C27        116.3090   154.2150   118.5020 c3         1 A1A       0.161300
     17 C29        115.2120   155.6450   116.7340 c          1 A1A       0.585100
     18 C30        113.8940   155.7650   117.5710 c3         1 A1A       0.042700
     19 C31        112.7440   154.9010   116.9940 c3         1 A1A      -0.088400
     20 C32        113.0010   153.3730   117.0560 c3         1 A1A      -0.089400
     21 C33        111.8230   152.5190   116.5410 c3         1 A1A       0.217800
     22 C35        110.6730   152.0800   114.4530 c2         1 A1A       0.787100
     23 C40        112.8770   157.1150   120.0790 c3         1 A1A      -0.161400
     24 C41        114.1800   156.9650   120.9130 c3         1 A1A      -0.075400
     25 C42        114.3790   155.5560   121.5200 c3         1 A1A      -0.076400
     26 C43        115.7840   155.3590   122.1320 c3         1 A1A      -0.076400
     27 C44        116.1050   153.8820   122.4490 c3         1 A1A      -0.075400
     28 C45        117.5520   153.6810   122.9490 c3         1 A1A      -0.077400
     29 C46        117.9080   152.1980   123.2010 c3         1 A1A      -0.071400
     30 C47        119.3110   151.9770   123.8140 c3         1 A1A      -0.071400
     31 C48        120.4860   152.3770   122.8900 c3         1 A1A      -0.079400
     32 C49        121.8680   152.1200   123.5290 c3         1 A1A      -0.073400
     33 C50        123.0430   152.5320   122.6160 c3         1 A1A      -0.079400
     34 C51        124.4240   152.3330   123.2800 c3         1 A1A      -0.072400
     35 C52        125.5970   152.7620   122.3680 c3         1 A1A      -0.078400
     36 C53        127.0000   152.5140   122.9720 c3         1 A1A      -0.070400
     37 C54        127.3090   153.3470   124.2340 c3         1 A1A      -0.085100
     38 C57        117.6310   152.0510   118.5890 ca         1 A1A      -0.107000
     39 C58        118.8360   151.3480   118.7580 ca         1 A1A      -0.096500
     40 C60        125.8390   146.3110   117.3050 c5         1 A1A       0.299700
     41 C62        126.4940   144.0090   117.9520 c          1 A1A       0.613000
     42 C64        124.9080   142.3880   118.8570 c          1 A1A       0.595200
     43 C65        123.8850   143.4220   118.7480 cc         1 A1A      -0.425200
     44 C66        124.1670   144.6780   118.2620 cd         1 A1A       0.033600
     45 N12        121.5100   145.9700   121.3600 n8         1 A1A      -0.971200
     46 N21        121.6720   150.5200   117.9570 n7         1 A1A      -0.849400
     47 N28        116.1710   154.7430   117.1460 ns         1 A1A      -0.501900
     48 N34        111.6340   152.6960   115.0960 nu         1 A1A      -0.897400
     49 N36        109.7120   152.9460   114.5020 nv         1 A1A      -1.070200
     50 N37        110.9970   151.5060   113.4070 n2         1 A1A      -0.895100
     51 N38        113.4600   157.1810   117.6340 ns         1 A1A      -0.506900
     52 N61        125.4670   144.9660   117.8340 n          1 A1A      -0.326000
     53 N63        126.1340   142.7950   118.4460 ns         1 A1A      -0.470500
     54 O01        126.7130   147.1090   115.1000 oh         1 A1A      -0.676000
     55 O04        123.9520   147.1470   114.1940 oh         1 A1A      -0.682000
     56 O07        122.0250   147.4120   117.2900 os         1 A1A      -0.498000
     57 O09        120.5750   147.7840   119.0980 os         1 A1A      -0.415000
     58 O14        118.9280   144.5310   118.6820 oh         1 A1A      -0.724000
     59 O16        118.4480   146.5540   116.9860 oh         1 A1A      -0.717000
     60 O19        124.9300   150.5210   119.0000 o          1 A1A      -0.718000
     61 O20        124.4620   151.1410   116.9930 o          1 A1A      -0.718000
     62 O55        113.0830   159.1100   118.7280 o          1 A1A      -0.605100
     63 O56        115.4000   156.2930   115.7130 o          1 A1A      -0.607100
     64 O59        124.9050   147.3310   117.7460 os         1 A1A      -0.412000
     65 O67        124.7020   141.2640   119.2790 o          1 A1A      -0.553000
     66 O68        127.6480   144.2270   117.6210 o          1 A1A      -0.580000
     67 H1         125.8440   145.2160   115.3580 h1         1 A1A       0.057700
     68 H2         123.5680   145.9650   115.8580 h1         1 A1A       0.035700
     69 H3         124.9290   148.7200   116.1950 h1         1 A1A       0.127700
     70 H4         122.5120   148.9990   116.0040 h1         1 A1A       0.054700
     71 H5         120.2370   148.5320   117.1340 h2         1 A1A       0.077700
     72 H6         118.7150   147.0550   119.6050 h1         1 A1A       0.056700
     73 H7         119.9360   147.3240   121.7090 h1         1 A1A       0.026700
     74 H8         119.4320   145.6350   121.4970 h1         1 A1A       0.026700
     75 H9         120.9540   145.1020   118.7040 h1         1 A1A       0.059700
     76 H10        120.3240   145.8050   116.4540 h1         1 A1A       0.056700
     77 H11        122.9150   149.1080   119.0030 h1         1 A1A       0.069700
     78 H12        121.2300   150.5750   120.0310 h1         1 A1A       0.044700
     79 H13        122.1500   151.9670   119.4370 h1         1 A1A       0.044700
     80 H14        120.9270   153.9910   119.3390 ha         1 A1A       0.135500
     81 H15        118.8000   155.2310   119.0480 ha         1 A1A       0.098500
     82 H16        116.2800   155.0540   119.2080 h1         1 A1A       0.039200
     83 H17        115.4620   153.5520   118.7200 h1         1 A1A       0.039200
     84 H18        114.1100   155.4150   118.5810 h1         1 A1A       0.067700
     85 H19        111.8240   155.1210   117.5510 hc         1 A1A       0.060700
     86 H20        112.5590   155.2010   115.9550 hc         1 A1A       0.060700
     87 H21        113.1910   153.0920   118.0990 hc         1 A1A       0.053200
     88 H22        113.9050   153.1170   116.4890 hc         1 A1A       0.053200
     89 H23        110.9090   152.7950   117.0850 h1         1 A1A       0.035700
     90 H24        112.0310   151.4610   116.7550 h1         1 A1A       0.035700
     91 H25        112.1380   157.6570   120.6790 hc         1 A1A       0.059700
     92 H26        112.4900   156.1170   119.8440 hc         1 A1A       0.059700
     93 H27        115.0420   157.1820   120.2680 hc         1 A1A       0.050700
     94 H28        114.1980   157.7200   121.7090 hc         1 A1A       0.050700
     95 H29        113.6150   155.3730   122.2860 hc         1 A1A       0.035700
     96 H30        114.2290   154.8010   120.7400 hc         1 A1A       0.035700
     97 H31        116.5400   155.7360   121.4320 hc         1 A1A       0.040700
     98 H32        115.8720   155.9610   123.0450 hc         1 A1A       0.040700
     99 H33        115.4010   153.5100   123.2030 hc         1 A1A       0.035700
    100 H34        115.9580   153.2780   121.5450 hc         1 A1A       0.035700
    101 H35        118.2400   154.0980   122.2030 hc         1 A1A       0.040200
    102 H36        117.6950   154.2520   123.8750 hc         1 A1A       0.040200
    103 H37        117.1630   151.7670   123.8810 hc         1 A1A       0.033700
    104 H38        117.8320   151.6400   122.2580 hc         1 A1A       0.033700
    105 H39        119.3830   152.5340   124.7560 hc         1 A1A       0.035200
    106 H40        119.4130   150.9150   124.0700 hc         1 A1A       0.035200
    107 H41        120.4100   151.8150   121.9530 hc         1 A1A       0.039200
    108 H42        120.4110   153.4410   122.6350 hc         1 A1A       0.039200
    109 H43        121.9340   152.6750   124.4730 hc         1 A1A       0.032200
    110 H44        121.9600   151.0550   123.7770 hc         1 A1A       0.032200
    111 H45        123.0020   151.9460   121.6900 hc         1 A1A       0.039700
    112 H46        122.9290   153.5870   122.3350 hc         1 A1A       0.039700
    113 H47        124.4530   152.9100   124.2120 hc         1 A1A       0.025200
    114 H48        124.5440   151.2760   123.5510 hc         1 A1A       0.025200
    115 H49        125.5270   152.2140   121.4210 hc         1 A1A       0.061200
    116 H50        125.4950   153.8270   122.1210 hc         1 A1A       0.061200
    117 H51        127.1140   151.4480   123.2050 hc         1 A1A       0.049700
    118 H52        127.7530   152.7480   122.2090 hc         1 A1A       0.049700
    119 H53        128.3470   153.1880   124.5490 hc         1 A1A       0.020033
    120 H54        127.1710   154.4170   124.0360 hc         1 A1A       0.020033
    121 H55        126.6560   153.0590   125.0670 hc         1 A1A       0.020033
    122 H56        116.7150   151.5030   118.3810 ha         1 A1A       0.098500
    123 H57        118.8440   150.2630   118.6790 ha         1 A1A       0.135500
    124 H58        126.8570   146.5400   117.6460 h2         1 A1A       0.101700
    125 H59        122.8940   143.1390   119.0830 ha         1 A1A       0.211000
    126 H60        123.4460   145.4910   118.1840 h4         1 A1A       0.258000
    127 H61        121.6390   145.7960   122.3630 hn         1 A1A       0.387000
    128 H62        121.6570   145.0510   120.9300 hn         1 A1A       0.387000
    129 H64        121.8140   151.2010   117.2000 hn         1 A1A       0.413000
    130 H66        116.9720   154.6530   116.5340 hn         1 A1A       0.330500
    131 H67        112.4800   152.5660   114.5550 hn         1 A1A       0.490000
    132 H68        110.0470   153.6750   115.1120 hn         1 A1A       0.452500
    133 H69        109.4820   153.2920   113.5840 hn         1 A1A       0.452500
    134 H70        110.1450   151.4020   112.8460 hn         1 A1A       0.376400
    135 H71        113.6010   157.7480   116.8040 hn         1 A1A       0.331500
    136 H72        126.8720   142.1130   118.5140 hn         1 A1A       0.332500
    137 H73        127.5110   146.5620   114.9150 ho         1 A1A       0.506000
    138 H74        122.9730   147.0900   114.0940 ho         1 A1A       0.508000
    139 H75        119.1760   143.9050   119.4050 ho         1 A1A       0.512000
    140 H76        118.0220   145.7860   117.4480 ho         1 A1A       0.521000
    141 C22        121.3410   151.2680   119.1850 c3         1 A1A       0.210100
    142 C39        113.1520   157.8920   118.7760 c          1 A1A       0.609100
@<TRIPOS>BOND
     1     1     2 1   
     2     1    40 1   
     3     1    54 1   
     4     1    67 1   
     5     2     3 1   
     6     2    55 1   
     7     2    68 1   
     8     3     4 1   
     9     3    64 1   
    10     3    69 1   
    11     4    10 1   
    12     4    56 1   
    13     4    70 1   
    14     5     9 1   
    15     5    56 1   
    16     5    57 1   
    17     5    71 1   
    18     6     7 1   
    19     6     8 1   
    20     6    57 1   
    21     6    72 1   
    22     7    45 1   
    23     7    73 1   
    24     7    74 1   
    25     8     9 1   
    26     8    58 1   
    27     8    75 1   
    28     9    59 1   
    29     9    76 1   
    30    10    11 1   
    31    10    46 1   
    32    10    77 1   
    33    11    60 1   
    34    11    61 1   
    35    12    13 ar  
    36    12    39 ar  
    37    12   141 1   
    38    13    14 ar  
    39    13    80 1   
    40    14    15 ar  
    41    14    81 1   
    42    15    16 1   
    43    15    38 ar  
    44    16    47 1   
    45    16    82 1   
    46    16    83 1   
    47    17    18 1   
    48    17    47 1   
    49    17    63 2   
    50    18    19 1   
    51    18    51 1   
    52    18    84 1   
    53    19    20 1   
    54    19    85 1   
    55    19    86 1   
    56    20    21 1   
    57    20    87 1   
    58    20    88 1   
    59    21    48 1   
    60    21    89 1   
    61    21    90 1   
    62    22    48 1   
    63    22    49 1   
    64    22    50 2   
    65    23    24 1   
    66    23    91 1   
    67    23    92 1   
    68    23   142 1   
    69    24    25 1   
    70    24    93 1   
    71    24    94 1   
    72    25    26 1   
    73    25    95 1   
    74    25    96 1   
    75    26    27 1   
    76    26    97 1   
    77    26    98 1   
    78    27    28 1   
    79    27    99 1   
    80    27   100 1   
    81    28    29 1   
    82    28   101 1   
    83    28   102 1   
    84    29    30 1   
    85    29   103 1   
    86    29   104 1   
    87    30    31 1   
    88    30   105 1   
    89    30   106 1   
    90    31    32 1   
    91    31   107 1   
    92    31   108 1   
    93    32    33 1   
    94    32   109 1   
    95    32   110 1   
    96    33    34 1   
    97    33   111 1   
    98    33   112 1   
    99    34    35 1   
   100    34   113 1   
   101    34   114 1   
   102    35    36 1   
   103    35   115 1   
   104    35   116 1   
   105    36    37 1   
   106    36   117 1   
   107    36   118 1   
   108    37   119 1   
   109    37   120 1   
   110    37   121 1   
   111    38    39 ar  
   112    38   122 1   
   113    39   123 1   
   114    40    52 1   
   115    40    64 1   
   116    40   124 1   
   117    41    52 1   
   118    41    53 1   
   119    41    66 2   
   120    42    43 1   
   121    42    53 1   
   122    42    65 2   
   123    43    44 2   
   124    43   125 1   
   125    44    52 1   
   126    44   126 1   
   127    45   127 1   
   128    45   128 1   
   129    46   129 1   
   130    46   141 1   
   131    47   130 1   
   132    48   131 1   
   133    49   132 1   
   134    49   133 1   
   135    50   134 1   
   136    51   135 1   
   137    51   142 1   
   138    53   136 1   
   139    54   137 1   
   140    55   138 1   
   141    58   139 1   
   142    59   140 1   
   143    62   142 2   
   144    78   141 1   
   145    79   141 1   
@<TRIPOS>SUBSTRUCTURE
     1 A1A         1 TEMP              0 ****  ****    0 ROOT
