@<TRIPOS>MOLECULE
A1A
   33    35     1     0     0
SMALL
No Charge or Current Charge


@<TRIPOS>ATOM
      1 N1           0.4560    14.8440    -0.6340 nb         1 A1A      -0.306000
      2 N3          -3.2900    15.2680     1.0280 na         1 A1A      -0.317400
      3 C4          -1.9630    15.0960     0.6640 ca         1 A1A       0.150500
      4 C5          -4.1110    15.5010    -0.0990 cc         1 A1A      -0.181100
      5 C6          -3.2350    15.4640    -1.1690 cd         1 A1A      -0.208200
      6 C7          -1.8920    15.2130    -0.7000 ca         1 A1A      -0.259800
      7 C8           0.3450    13.1810    -3.9870 c5         1 A1A      -0.118700
      8 C10         -1.8090    12.2420    -3.2940 c5         1 A1A       0.151600
      9 C            0.6090    15.6150    -4.8160 c3         1 A1A      -0.106100
     10 C1           0.5210    14.6840    -3.5880 c3         1 A1A       0.247500
     11 C11          0.4930    12.1430    -2.8440 c5         1 A1A       0.155600
     12 O           -0.8190    12.0560    -2.2560 os         1 A1A      -0.448000
     13 C9          -1.0400    12.7420    -4.5540 c5         1 A1A      -0.112400
     14 N           -0.5610    15.1920    -2.7310 nu         1 A1A      -0.920100
     15 C2          -0.6610    15.0780    -1.3520 ca         1 A1A       0.451900
     16 N2          -0.8640    14.8570     1.4020 nb         1 A1A      -0.233000
     17 C3           0.2960    14.7430     0.7090 ca         1 A1A       0.181900
     18 H1          -3.6160    15.2290     1.9890 hn         1 A1A       0.360000
     19 H8          -5.1860    15.6630    -0.0470 h4         1 A1A       0.214000
     20 H9          -3.5300    15.6070    -2.2070 ha         1 A1A       0.198000
     21 H2           1.1280    12.9920    -4.7300 hc         1 A1A       0.064700
     22 H12         -2.5470    12.9770    -2.9450 h1         1 A1A       0.040700
     23 H13         -2.3280    11.2920    -3.4830 h1         1 A1A       0.040700
     24 H5           1.4340    15.3090    -5.4700 hc         1 A1A       0.042033
     25 H4          -0.3170    15.5940    -5.4020 hc         1 A1A       0.042033
     26 H3           0.7960    16.6490    -4.5040 hc         1 A1A       0.042033
     27 H            1.4850    14.7780    -3.0650 h1         1 A1A       0.090700
     28 H14          1.2320    12.4330    -2.0850 h1         1 A1A       0.054200
     29 H15          0.7660    11.1550    -3.2380 h1         1 A1A       0.054200
     30 H10         -1.5720    13.5460    -5.0740 hc         1 A1A       0.049200
     31 H11         -0.9240    11.9240    -5.2750 hc         1 A1A       0.049200
     32 H6          -1.4520    15.3610    -3.1870 hn         1 A1A       0.488000
     33 H7           1.1950    14.5510     1.2920 h5         1 A1A       0.040100
@<TRIPOS>BOND
     1     1    15 ar  
     2     1    17 ar  
     3     2     3 1   
     4     2     4 1   
     5     2    18 1   
     6     3     6 ar  
     7     3    16 ar  
     8     4     5 2   
     9     4    19 1   
    10     5     6 1   
    11     5    20 1   
    12     6    15 ar  
    13     7    10 1   
    14     7    11 1   
    15     7    13 1   
    16     7    21 1   
    17     8    12 1   
    18     8    13 1   
    19     8    22 1   
    20     8    23 1   
    21     9    10 1   
    22     9    24 1   
    23     9    25 1   
    24     9    26 1   
    25    10    14 1   
    26    10    27 1   
    27    11    12 1   
    28    11    28 1   
    29    11    29 1   
    30    13    30 1   
    31    13    31 1   
    32    14    15 1   
    33    14    32 1   
    34    16    17 ar  
    35    17    33 1   
@<TRIPOS>SUBSTRUCTURE
     1 A1A         1 TEMP              0 ****  ****    0 ROOT
