@<TRIPOS>MOLECULE
A1A
   50    52     1     0     0
SMALL
abcg2


@<TRIPOS>ATOM
      1 N1          -5.2660    15.0390     0.6960 ns         1 A1A      -0.162000
      2 C4          -2.9050    14.1560    -2.6680 ca         1 A1A      -0.159600
      3 C5          -4.2860    14.2610    -2.7990 ca         1 A1A      -0.040500
      4 C6          -5.1080    14.5330    -1.7180 ca         1 A1A      -0.173500
      5 C7          -4.5490    14.7290    -0.4500 ca         1 A1A      -0.004000
      6 C8          -6.6310    15.0460     0.8810 c          1 A1A       0.664100
      7 C10         -8.8250    16.5300     3.4340 cx         1 A1A      -0.135900
      8 C13         -2.3540    14.3540    -1.4020 ca         1 A1A      -0.040500
      9 C15         -0.9190    10.6930    -4.8390 ca         1 A1A      -0.050000
     10 C17         -1.0310     9.5090    -6.9300 ca         1 A1A      -0.095000
     11 C20         -0.1460    11.7450    -6.8460 ca         1 A1A      -0.056000
     12 F1          -0.8840    11.5810    -9.6760 f          1 A1A      -0.130500
     13 F            1.0840    10.7210    -9.3240 f          1 A1A      -0.130500
     14 C18         -0.4780    10.6050    -7.5740 ca         1 A1A      -0.187300
     15 C16         -1.2510     9.5570    -5.5590 ca         1 A1A      -0.123000
     16 C14         -0.3600    11.8000    -5.4770 ca         1 A1A      -0.066300
     17 C2           0.0620    13.0320    -4.7020 c3         1 A1A       0.168000
     18 C1           1.4670    12.8510    -4.1020 c3         1 A1A      -0.221400
     19 C            1.5630    11.8120    -2.9670 c          1 A1A       0.717000
     20 O1           2.4720    10.9730    -3.0250 o          1 A1A      -0.728500
     21 O            0.7150    11.9210    -2.0410 o          1 A1A      -0.728500
     22 N           -0.8580    13.3790    -3.6470 ns         1 A1A      -0.494900
     23 C3          -2.0800    13.8770    -3.8800 c          1 A1A       0.604700
     24 O2          -2.5060    14.1040    -5.0080 o          1 A1A      -0.646100
     25 C12         -3.1580    14.6380    -0.3170 ca         1 A1A      -0.173500
     26 O3          -7.4340    14.7290     0.0200 o          1 A1A      -0.614100
     27 N2          -7.0040    15.4500     2.1220 ns         1 A1A      -0.510900
     28 C9          -8.3700    15.4350     2.5240 cx         1 A1A       0.066700
     29 C11         -9.2920    16.4960     2.0120 cx         1 A1A      -0.135900
     30 H7          -4.6950    15.2480     1.5010 hn         1 A1A       0.140000
     31 H5          -4.7400    14.1240    -3.7710 ha         1 A1A       0.135500
     32 H6          -6.1720    14.5980    -1.8670 ha         1 A1A       0.121000
     33 H11         -9.5240    16.2720     4.2190 hc         1 A1A       0.076200
     34 H10         -8.1010    17.2860     3.7090 hc         1 A1A       0.076200
     35 H15         -1.2840    14.3150    -1.2460 ha         1 A1A       0.135500
     36 H16         -1.0950    10.7180    -3.7710 ha         1 A1A       0.142000
     37 H18         -1.2930     8.6200    -7.4920 ha         1 A1A       0.094000
     38 H20          0.2810    12.6070    -7.3460 ha         1 A1A       0.117000
     39 H19         -0.5710     9.6150    -9.5000 h2         1 A1A       0.045700
     40 H17         -1.6830     8.7040    -5.0520 ha         1 A1A       0.105000
     41 H            0.1150    13.8640    -5.4100 h1         1 A1A       0.043700
     42 H2           1.7880    13.8210    -3.7070 hc         1 A1A       0.038200
     43 H3           2.1540    12.5960    -4.9090 hc         1 A1A       0.038200
     44 H4          -0.5740    13.0010    -2.7400 hn         1 A1A       0.383500
     45 H14         -2.7000    14.7990     0.6520 ha         1 A1A       0.121000
     46 H8          -6.3100    15.6020     2.8380 hn         1 A1A       0.311500
     47 H9          -8.8000    14.4520     2.6900 h1         1 A1A       0.082700
     48 H13        -10.3160    16.2150     1.8070 hc         1 A1A       0.076200
     49 H12         -8.8780    17.2270     1.3300 hc         1 A1A       0.076200
     50 C19         -0.2420    10.5530    -9.0480 c3         1 A1A       0.229600
@<TRIPOS>BOND
     1     1     5 1   
     2     1     6 1   
     3     1    30 1   
     4     2     3 ar  
     5     2     8 ar  
     6     2    23 1   
     7     3     4 ar  
     8     3    31 1   
     9     4     5 ar  
    10     4    32 1   
    11     5    25 ar  
    12     6    26 2   
    13     6    27 1   
    14     7    28 1   
    15     7    29 1   
    16     7    33 1   
    17     7    34 1   
    18     8    25 ar  
    19     8    35 1   
    20     9    15 ar  
    21     9    16 ar  
    22     9    36 1   
    23    10    14 ar  
    24    10    15 ar  
    25    10    37 1   
    26    11    14 ar  
    27    11    16 ar  
    28    11    38 1   
    29    12    50 1   
    30    13    50 1   
    31    14    50 1   
    32    15    40 1   
    33    16    17 1   
    34    17    18 1   
    35    17    22 1   
    36    17    41 1   
    37    18    19 1   
    38    18    42 1   
    39    18    43 1   
    40    19    20 1   
    41    19    21 1   
    42    22    23 1   
    43    22    44 1   
    44    23    24 2   
    45    25    45 1   
    46    27    28 1   
    47    27    46 1   
    48    28    29 1   
    49    28    47 1   
    50    29    48 1   
    51    29    49 1   
    52    39    50 1   
@<TRIPOS>SUBSTRUCTURE
     1 A1A         1 TEMP              0 ****  ****    0 ROOT
