@<TRIPOS>MOLECULE
A1A
  142   145     1     0     0
SMALL
abcg2


@<TRIPOS>ATOM
      1 C02        125.7170   145.7800   116.8930 c5         1 A1A       0.136300
      2 C03        124.9390   147.0170   116.4660 c5         1 A1A       0.139300
      3 C05        124.5130   147.5810   117.8220 c5         1 A1A       0.120300
      4 C06        123.3320   148.5390   117.8140 c3         1 A1A       0.205300
      5 C08        121.6060   148.5420   116.1110 c5         1 A1A       0.404300
      6 C10        119.3150   148.1320   115.9290 c5         1 A1A       0.145300
      7 C11        118.2490   147.8390   116.9700 c3         1 A1A       0.146800
      8 C13        120.0730   146.9090   115.3990 c5         1 A1A       0.094300
      9 C15        121.3950   147.5360   114.9780 c5         1 A1A       0.130300
     10 C17        122.9880   149.0510   119.2210 c3         1 A1A       0.019500
     11 C18        124.2510   149.6990   119.8560 c          1 A1A       0.682000
     12 C23        120.1180   151.2420   120.1840 ca         1 A1A      -0.044300
     13 C24        120.0490   152.5690   120.5810 ca         1 A1A      -0.096500
     14 C25        118.9180   153.3350   120.3140 ca         1 A1A      -0.107000
     15 C26        117.8350   152.7850   119.6450 ca         1 A1A      -0.145300
     16 C27        116.6310   153.6210   119.3090 c3         1 A1A       0.161300
     17 C29        115.4980   154.1390   117.1110 c          1 A1A       0.585100
     18 C30        114.1100   154.1580   117.7580 c3         1 A1A       0.042700
     19 C31        113.3250   152.9020   117.3620 c3         1 A1A      -0.088400
     20 C32        113.9640   151.5990   117.8260 c3         1 A1A      -0.089400
     21 C33        113.1210   150.3730   117.5120 c3         1 A1A       0.217800
     22 C35        112.2610   149.1950   115.5000 c2         1 A1A       0.787100
     23 C40        113.0180   156.2540   119.5470 c3         1 A1A      -0.161400
     24 C41        114.4020   156.7300   120.0050 c3         1 A1A      -0.075400
     25 C42        114.6980   156.3440   121.4480 c3         1 A1A      -0.076400
     26 C43        116.1040   156.7260   121.8860 c3         1 A1A      -0.076400
     27 C44        116.4650   156.2080   123.2740 c3         1 A1A      -0.075400
     28 C45        117.9570   156.2970   123.5660 c3         1 A1A      -0.077400
     29 C46        118.3440   155.7140   124.9200 c3         1 A1A      -0.071400
     30 C47        119.8520   155.6320   125.1550 c3         1 A1A      -0.071400
     31 C48        120.5610   154.6750   124.2030 c3         1 A1A      -0.079400
     32 C49        122.0390   154.4740   124.5090 c3         1 A1A      -0.073400
     33 C50        122.7140   153.5620   123.4930 c3         1 A1A      -0.079400
     34 C51        124.1980   153.3290   123.7410 c3         1 A1A      -0.072400
     35 C52        124.8060   152.4060   122.6940 c3         1 A1A      -0.078400
     36 C53        126.2960   152.1240   122.8600 c3         1 A1A      -0.070400
     37 C54        127.1800   153.3500   122.6660 c3         1 A1A      -0.085100
     38 C57        117.8940   151.4450   119.2600 ca         1 A1A      -0.107000
     39 C58        119.0190   150.6870   119.5250 ca         1 A1A      -0.096500
     40 C60        124.8560   145.2990   118.0760 c5         1 A1A       0.299700
     41 C62        124.3060   143.0210   117.4470 c          1 A1A       0.613000
     42 C64        121.9950   142.3470   116.8670 c          1 A1A       0.595200
     43 C65        121.6080   143.7120   117.1130 cc         1 A1A      -0.425200
     44 C66        122.5300   144.6150   117.4920 cd         1 A1A       0.033600
     45 N12        118.7690   147.2070   118.1690 n8         1 A1A      -0.971200
     46 N21        121.8800   149.9790   119.1210 n7         1 A1A      -0.849400
     47 N28        116.5640   153.8460   117.8730 ns         1 A1A      -0.501900
     48 N34        112.9540   150.2300   116.0780 nu         1 A1A      -0.897400
     49 N36        111.2560   148.6620   116.2720 nv         1 A1A      -1.070200
     50 N37        112.6050   148.7930   114.3300 n2         1 A1A      -0.895100
     51 N38        113.4240   155.3480   117.3080 ns         1 A1A      -0.506900
     52 N61        123.8460   144.3040   117.6550 n          1 A1A      -0.326000
     53 N63        123.3500   142.1180   117.0670 ns         1 A1A      -0.470500
     54 O01        126.9860   146.1780   117.3310 oh         1 A1A      -0.676000
     55 O04        125.7100   147.8820   115.6900 oh         1 A1A      -0.682000
     56 O07        122.2210   147.9150   117.2000 os         1 A1A      -0.498000
     57 O09        120.3250   148.9950   116.4360 os         1 A1A      -0.415000
     58 O14        119.4610   146.2610   114.3190 oh         1 A1A      -0.724000
     59 O16        121.2660   148.2730   113.7880 oh         1 A1A      -0.717000
     60 O19        124.8080   149.0900   120.7890 o          1 A1A      -0.718000
     61 O20        124.5880   150.7940   119.3590 o          1 A1A      -0.718000
     62 O55        112.3080   157.2800   117.5070 o          1 A1A      -0.605100
     63 O56        115.6010   154.3670   115.9140 o          1 A1A      -0.607100
     64 O59        124.2190   146.4200   118.5990 os         1 A1A      -0.412000
     65 O67        121.2590   141.4430   116.5190 o          1 A1A      -0.553000
     66 O68        125.4740   142.7190   117.5880 o          1 A1A      -0.580000
     67 H1         125.7770   145.0310   116.0960 h1         1 A1A       0.057700
     68 H2         124.0520   146.6680   115.9220 h1         1 A1A       0.035700
     69 H3         125.3720   148.1060   118.2560 h1         1 A1A       0.127700
     70 H4         123.6520   149.4070   117.2170 h1         1 A1A       0.054700
     71 H5         122.2120   149.3970   115.7850 h2         1 A1A       0.077700
     72 H6         118.8140   148.6210   115.0820 h1         1 A1A       0.056700
     73 H7         117.7800   148.7830   117.2560 h1         1 A1A       0.026700
     74 H8         117.4630   147.2590   116.4640 h1         1 A1A       0.026700
     75 H9         120.2730   146.2060   116.2180 h1         1 A1A       0.059700
     76 H10        122.2080   146.8040   114.9100 h1         1 A1A       0.056700
     77 H11        122.6620   148.2060   119.8350 h1         1 A1A       0.069700
     78 H12        121.0940   149.5180   120.9800 h1         1 A1A       0.044700
     79 H13        122.0720   150.9780   121.0130 h1         1 A1A       0.044700
     80 H14        120.8900   153.0220   121.0940 ha         1 A1A       0.135500
     81 H15        118.8890   154.3740   120.6240 ha         1 A1A       0.098500
     82 H16        116.6850   154.5700   119.8480 h1         1 A1A       0.039200
     83 H17        115.7310   153.1100   119.6480 h1         1 A1A       0.039200
     84 H18        114.1840   154.1940   118.8420 h1         1 A1A       0.067700
     85 H19        112.3270   152.9920   117.8000 hc         1 A1A       0.060700
     86 H20        113.1930   152.8980   116.2770 hc         1 A1A       0.060700
     87 H21        114.1160   151.6260   118.9090 hc         1 A1A       0.053200
     88 H22        114.9570   151.4680   117.3820 hc         1 A1A       0.053200
     89 H23        112.1470   150.4920   117.9940 h1         1 A1A       0.035700
     90 H24        113.5920   149.4900   117.9610 h1         1 A1A       0.035700
     91 H25        112.2470   156.8810   119.9930 hc         1 A1A       0.059700
     92 H26        112.8370   155.2380   119.9070 hc         1 A1A       0.059700
     93 H27        115.1800   156.3070   119.3620 hc         1 A1A       0.050700
     94 H28        114.4730   157.8140   119.8790 hc         1 A1A       0.050700
     95 H29        113.9570   156.7960   122.1150 hc         1 A1A       0.035700
     96 H30        114.5770   155.2590   121.5500 hc         1 A1A       0.035700
     97 H31        116.8200   156.3210   121.1620 hc         1 A1A       0.040700
     98 H32        116.2260   157.8140   121.8480 hc         1 A1A       0.040700
     99 H33        115.8960   156.7510   124.0360 hc         1 A1A       0.035700
    100 H34        116.1550   155.1600   123.3550 hc         1 A1A       0.035700
    101 H35        118.4870   155.7690   122.7680 hc         1 A1A       0.040200
    102 H36        118.2880   157.3400   123.5080 hc         1 A1A       0.040200
    103 H37        117.8830   156.3110   125.7130 hc         1 A1A       0.033700
    104 H38        117.9190   154.7080   125.0140 hc         1 A1A       0.033700
    105 H39        120.2930   156.6310   125.0680 hc         1 A1A       0.035200
    106 H40        120.0340   155.3090   126.1850 hc         1 A1A       0.035200
    107 H41        120.0530   153.7040   124.2290 hc         1 A1A       0.039200
    108 H42        120.4650   155.0340   123.1730 hc         1 A1A       0.039200
    109 H43        122.5480   155.4450   124.5230 hc         1 A1A       0.032200
    110 H44        122.1540   154.0560   125.5150 hc         1 A1A       0.032200
    111 H45        122.1940   152.5980   123.4720 hc         1 A1A       0.039700
    112 H46        122.5860   153.9900   122.4920 hc         1 A1A       0.039700
    113 H47        124.7160   154.2940   123.7460 hc         1 A1A       0.025200
    114 H48        124.3450   152.9000   124.7380 hc         1 A1A       0.025200
    115 H49        124.2660   151.4540   122.7090 hc         1 A1A       0.061200
    116 H50        124.6330   152.8270   121.6980 hc         1 A1A       0.061200
    117 H51        126.4790   151.6920   123.8490 hc         1 A1A       0.049700
    118 H52        126.5820   151.3560   122.1360 hc         1 A1A       0.049700
    119 H53        128.2380   153.0890   122.7330 hc         1 A1A       0.020033
    120 H54        127.0120   153.8010   121.6870 hc         1 A1A       0.020033
    121 H55        126.9860   154.1150   123.4180 hc         1 A1A       0.020033
    122 H56        117.0530   150.9950   118.7440 ha         1 A1A       0.098500
    123 H57        119.0560   149.6490   119.2160 ha         1 A1A       0.135500
    124 H58        125.4670   144.8190   118.8440 h2         1 A1A       0.101700
    125 H59        120.5750   144.0000   116.9990 ha         1 A1A       0.211000
    126 H60        122.2550   145.6410   117.6840 h4         1 A1A       0.258000
    127 H61        118.0620   147.2330   118.8910 hn         1 A1A       0.387000
    128 H62        118.9520   146.2250   118.0040 hn         1 A1A       0.387000
    129 H64        122.1940   150.7980   118.6110 hn         1 A1A       0.413000
    130 H66        117.4530   153.8910   117.3930 hn         1 A1A       0.330500
    131 H67        113.7800   150.4600   115.5450 hn         1 A1A       0.490000
    132 H68        110.7910   149.2790   116.9190 hn         1 A1A       0.452500
    133 H69        110.6040   148.0720   115.7800 hn         1 A1A       0.452500
    134 H70        111.9590   148.0920   113.9870 hn         1 A1A       0.376400
    135 H71        113.3460   155.4560   116.3060 hn         1 A1A       0.331500
    136 H72        123.6850   141.1750   116.9100 hn         1 A1A       0.332500
    137 H73        127.4870   145.3910   117.5710 ho         1 A1A       0.506000
    138 H74        125.1210   148.5090   115.2590 ho         1 A1A       0.508000
    139 H75        118.6280   145.8770   114.6100 ho         1 A1A       0.512000
    140 H76        120.8520   147.7100   113.1250 ho         1 A1A       0.521000
    141 C22        121.3530   150.4110   120.4020 c3         1 A1A       0.210100
    142 C39        112.8710   156.3370   118.0460 c          1 A1A       0.609100
@<TRIPOS>BOND
     1     1     2 1   
     2     1    40 1   
     3     1    54 1   
     4     1    67 1   
     5     2     3 1   
     6     2    55 1   
     7     2    68 1   
     8     3     4 1   
     9     3    64 1   
    10     3    69 1   
    11     4    10 1   
    12     4    56 1   
    13     4    70 1   
    14     5     9 1   
    15     5    56 1   
    16     5    57 1   
    17     5    71 1   
    18     6     7 1   
    19     6     8 1   
    20     6    57 1   
    21     6    72 1   
    22     7    45 1   
    23     7    73 1   
    24     7    74 1   
    25     8     9 1   
    26     8    58 1   
    27     8    75 1   
    28     9    59 1   
    29     9    76 1   
    30    10    11 1   
    31    10    46 1   
    32    10    77 1   
    33    11    60 1   
    34    11    61 1   
    35    12    13 ar  
    36    12    39 ar  
    37    12   141 1   
    38    13    14 ar  
    39    13    80 1   
    40    14    15 ar  
    41    14    81 1   
    42    15    16 1   
    43    15    38 ar  
    44    16    47 1   
    45    16    82 1   
    46    16    83 1   
    47    17    18 1   
    48    17    47 1   
    49    17    63 2   
    50    18    19 1   
    51    18    51 1   
    52    18    84 1   
    53    19    20 1   
    54    19    85 1   
    55    19    86 1   
    56    20    21 1   
    57    20    87 1   
    58    20    88 1   
    59    21    48 1   
    60    21    89 1   
    61    21    90 1   
    62    22    48 1   
    63    22    49 1   
    64    22    50 2   
    65    23    24 1   
    66    23    91 1   
    67    23    92 1   
    68    23   142 1   
    69    24    25 1   
    70    24    93 1   
    71    24    94 1   
    72    25    26 1   
    73    25    95 1   
    74    25    96 1   
    75    26    27 1   
    76    26    97 1   
    77    26    98 1   
    78    27    28 1   
    79    27    99 1   
    80    27   100 1   
    81    28    29 1   
    82    28   101 1   
    83    28   102 1   
    84    29    30 1   
    85    29   103 1   
    86    29   104 1   
    87    30    31 1   
    88    30   105 1   
    89    30   106 1   
    90    31    32 1   
    91    31   107 1   
    92    31   108 1   
    93    32    33 1   
    94    32   109 1   
    95    32   110 1   
    96    33    34 1   
    97    33   111 1   
    98    33   112 1   
    99    34    35 1   
   100    34   113 1   
   101    34   114 1   
   102    35    36 1   
   103    35   115 1   
   104    35   116 1   
   105    36    37 1   
   106    36   117 1   
   107    36   118 1   
   108    37   119 1   
   109    37   120 1   
   110    37   121 1   
   111    38    39 ar  
   112    38   122 1   
   113    39   123 1   
   114    40    52 1   
   115    40    64 1   
   116    40   124 1   
   117    41    52 1   
   118    41    53 1   
   119    41    66 2   
   120    42    43 1   
   121    42    53 1   
   122    42    65 2   
   123    43    44 2   
   124    43   125 1   
   125    44    52 1   
   126    44   126 1   
   127    45   127 1   
   128    45   128 1   
   129    46   129 1   
   130    46   141 1   
   131    47   130 1   
   132    48   131 1   
   133    49   132 1   
   134    49   133 1   
   135    50   134 1   
   136    51   135 1   
   137    51   142 1   
   138    53   136 1   
   139    54   137 1   
   140    55   138 1   
   141    58   139 1   
   142    59   140 1   
   143    62   142 2   
   144    78   141 1   
   145    79   141 1   
@<TRIPOS>SUBSTRUCTURE
     1 A1A         1 TEMP              0 ****  ****    0 ROOT
