@<TRIPOS>MOLECULE
A1A
   40    43     1     0     0
SMALL
No Charge or Current Charge


@<TRIPOS>ATOM
      1 N1          -7.9970    16.2420     4.9280 ns         1 A1A      -0.169000
      2 N3          -6.6680    15.6730    -0.7330 nb         1 A1A      -0.664000
      3 C4         -10.7380    17.7640     7.7980 ca         1 A1A      -0.130000
      4 C5         -10.8130    18.1850     6.4670 ca         1 A1A      -0.087000
      5 C6          -9.9140    17.6730     5.5200 ca         1 A1A      -0.121000
      6 C7          -8.9540    16.6970     5.8790 ca         1 A1A      -0.010000
      7 C8          -7.9890    16.2400     3.5430 c          1 A1A       0.654100
      8 C10         -7.1090    15.8670     0.5400 ca         1 A1A       0.399900
      9 C13         -4.6530    14.8000     0.1850 ca         1 A1A      -0.260900
     10 C15         -8.8960    16.2250     7.2270 ca         1 A1A       0.161000
     11 O1          -8.9230    16.6170     2.8460 o          1 A1A      -0.603100
     12 C3          -9.7770    16.8180     8.1830 ca         1 A1A       0.096100
     13 O           -9.6930    16.4990     9.5210 os         1 A1A      -0.338100
     14 C2          -8.4120    16.0430    10.0000 c6         1 A1A       0.144600
     15 C1          -7.8630    14.8980     9.1140 c6         1 A1A       0.147800
     16 N           -8.0020    15.1730     7.6490 nh         1 A1A      -0.776400
     17 C           -7.7070    14.0040     6.7800 c3         1 A1A       0.171100
     18 N2          -6.7990    15.7370     3.0360 ns         1 A1A      -0.173000
     19 C9          -6.3440    15.5370     1.6980 ca         1 A1A      -0.123000
     20 C14         -5.0630    14.9800     1.5100 ca         1 A1A      -0.031000
     21 C11         -5.4420    15.1410    -0.8730 ca         1 A1A       0.365500
     22 C12         -3.4320    14.2690    -0.3610 cc         1 A1A       0.360800
     23 N5          -3.4460    14.2730    -1.7010 nd         1 A1A      -0.504100
     24 N4          -4.7060    14.8190    -1.9920 na         1 A1A      -0.159100
     25 H11         -7.1650    15.8550     5.3540 hn         1 A1A       0.163000
     26 H8         -11.4080    18.1880     8.5420 ha         1 A1A       0.130000
     27 H9         -11.5460    18.9340     6.1730 ha         1 A1A       0.121000
     28 H10         -9.9640    18.0650     4.5090 ha         1 A1A       0.137000
     29 H6          -8.5060    15.7110    11.0430 h1         1 A1A       0.062700
     30 H7          -7.7110    16.8880     9.9720 h1         1 A1A       0.062700
     31 H4          -8.4060    13.9770     9.3740 h1         1 A1A       0.050200
     32 H5          -6.8060    14.7350     9.3700 h1         1 A1A       0.050200
     33 H1          -6.7760    14.1620     6.2200 h1         1 A1A       0.039700
     34 H2          -7.5930    13.0870     7.3740 h1         1 A1A       0.039700
     35 H3          -8.5260    13.8310     6.0690 h1         1 A1A       0.039700
     36 H12         -6.1280    15.4630     3.7430 hn         1 A1A       0.150000
     37 H15         -4.4240    14.7050     2.3470 ha         1 A1A       0.125000
     38 H14         -2.5460    13.8850     0.1280 h4         1 A1A       0.052800
     39 H           -5.0240    14.9550    -2.9470 hn         1 A1A       0.389000
     40 H13         -8.1030    16.3010     0.6130 h4         1 A1A       0.037100
@<TRIPOS>BOND
     1     1     6 1   
     2     1     7 1   
     3     1    25 1   
     4     2     8 ar  
     5     2    21 ar  
     6     3     4 ar  
     7     3    12 ar  
     8     3    26 1   
     9     4     5 ar  
    10     4    27 1   
    11     5     6 ar  
    12     5    28 1   
    13     6    10 ar  
    14     7    11 2   
    15     7    18 1   
    16     8    19 ar  
    17     8    40 1   
    18     9    20 ar  
    19     9    21 ar  
    20     9    22 1   
    21    10    12 ar  
    22    10    16 1   
    23    12    13 1   
    24    13    14 1   
    25    14    15 1   
    26    14    29 1   
    27    14    30 1   
    28    15    16 1   
    29    15    31 1   
    30    15    32 1   
    31    16    17 1   
    32    17    33 1   
    33    17    34 1   
    34    17    35 1   
    35    18    19 1   
    36    18    36 1   
    37    19    20 ar  
    38    20    37 1   
    39    21    24 1   
    40    22    23 2   
    41    22    38 1   
    42    23    24 1   
    43    24    39 1   
@<TRIPOS>SUBSTRUCTURE
     1 A1A         1 TEMP              0 ****  ****    0 ROOT
