@<TRIPOS>MOLECULE
A1A
  140   143     1     0     0
SMALL
abcg2


@<TRIPOS>ATOM
      1 C10        158.3690   141.6090   157.6360 c5         1 A1A       0.173300
      2 N12        158.3640   143.1130   155.7070 n8         1 A1A      -0.997200
      3 C13        157.0650   140.8690   157.3040 c5         1 A1A       0.166300
      4 C15        156.8300   140.0330   158.5660 c5         1 A1A       0.084300
      5 C17        156.3970   143.9780   161.2190 c3         1 A1A       0.025500
      6 C24        159.1490   146.4560   158.3890 ca         1 A1A      -0.116000
      7 C26        161.5550   146.4390   158.3970 ca         1 A1A      -0.114000
      8 C28        162.8480   145.7810   160.4640 c3         1 A1A       0.146300
      9 C02        153.2830   140.3440   162.0880 c5         1 A1A       0.100300
     10 C03        154.8040   140.4500   161.9280 c5         1 A1A       0.081300
     11 C05        155.0010   141.9610   161.9050 c5         1 A1A       0.158300
     12 C06        156.2830   142.4520   161.2490 c3         1 A1A       0.193300
     13 C08        157.3560   140.9900   159.6370 c5         1 A1A       0.357300
     14 C11        158.4240   143.0510   157.1560 c3         1 A1A       0.128800
     15 C18        156.2200   144.5350   162.6630 c          1 A1A       0.714000
     16 C23        159.1270   146.0340   159.7120 ca         1 A1A      -0.069300
     17 C25        160.3590   146.6590   157.7350 ca         1 A1A      -0.133000
     18 C27        161.5540   146.0220   159.7290 ca         1 A1A      -0.129300
     19 C30        165.0560   146.7880   160.0180 c          1 A1A       0.597100
     20 C31        165.7850   148.1220   159.8290 c3         1 A1A       0.031700
     21 C34        163.5630   149.8120   157.2800 c3         1 A1A      -0.156400
     22 C35        163.1480   149.5360   155.8450 c3         1 A1A      -0.063400
     23 C36        162.1600   150.5750   155.3290 c3         1 A1A      -0.078400
     24 C37        161.7340   150.3220   153.8890 c3         1 A1A      -0.074400
     25 C38        160.7450   151.3610   153.3740 c3         1 A1A      -0.074400
     26 C39        160.3580   151.1960   151.9060 c3         1 A1A      -0.072400
     27 C40        159.5650   149.9280   151.6090 c3         1 A1A      -0.074400
     28 C41        159.1670   149.7730   150.1420 c3         1 A1A      -0.073400
     29 C42        158.1710   150.8150   149.6460 c3         1 A1A      -0.075400
     30 C43        157.7370   150.5870   148.2030 c3         1 A1A      -0.076400
     31 C44        156.7480   151.6330   147.7050 c3         1 A1A      -0.075400
     32 C45        156.3140   151.4070   146.2610 c3         1 A1A      -0.072400
     33 C46        155.2870   152.4130   145.7480 c3         1 A1A      -0.073400
     34 C47        155.8020   153.8450   145.6550 c3         1 A1A      -0.076400
     35 C48        154.7740   154.7990   145.0630 c3         1 A1A      -0.089100
     36 C50        166.1750   148.7390   161.1740 c3         1 A1A      -0.082400
     37 C51        167.0740   147.8580   162.0300 c3         1 A1A      -0.075400
     38 C52        167.5560   148.5830   163.2790 c3         1 A1A      -0.078400
     39 C53        168.4490   147.7140   164.1500 c3         1 A1A       0.148800
     40 C56        160.3390   145.8220   160.3690 ca         1 A1A      -0.066000
     41 C58        152.8110   141.5300   161.2410 c5         1 A1A       0.339700
     42 C60        151.2680   140.4950   159.6800 c          1 A1A       0.609000
     43 C62        151.7480   140.3720   157.2520 c          1 A1A       0.594200
     44 C63        152.9900   141.0430   157.5330 cc         1 A1A      -0.424200
     45 C64        153.2960   141.3900   158.7960 cd         1 A1A       0.028600
     46 N21        157.6990   144.3420   160.6900 n7         1 A1A      -0.835400
     47 N29        163.7530   146.8980   160.3220 ns         1 A1A      -0.495900
     48 N32        164.9790   149.0660   159.0890 ns         1 A1A      -0.524900
     49 N54        168.8810   148.4350   165.3390 n8         1 A1A      -0.996200
     50 N59        152.4800   141.1290   159.8560 n          1 A1A      -0.330000
     51 N61        150.9750   140.1560   158.3870 ns         1 A1A      -0.473500
     52 O01        152.8930   140.5900   163.4110 oh         1 A1A      -0.695000
     53 O04        155.5260   139.8870   162.9870 oh         1 A1A      -0.693000
     54 O07        156.3690   141.9410   159.9260 os         1 A1A      -0.524000
     55 O09        158.4830   141.5790   159.0590 os         1 A1A      -0.448000
     56 O14        157.2020   140.1300   156.1260 oh         1 A1A      -0.687000
     57 O16        157.6280   138.8830   158.4850 oh         1 A1A      -0.689000
     58 O19        157.1120   144.2340   163.4790 o          1 A1A      -0.708500
     59 O20        155.1940   145.2060   162.8780 o          1 A1A      -0.708500
     60 O49        164.8370   147.7640   157.2680 o          1 A1A      -0.585100
     61 O55        165.6490   145.7230   159.9360 o          1 A1A      -0.598100
     62 O57        153.8510   142.4560   161.2210 os         1 A1A      -0.414000
     63 O65        151.3560   140.0070   156.1600 o          1 A1A      -0.550000
     64 O66        150.5200   140.2550   160.6050 o          1 A1A      -0.562000
     65 H1         159.2170   141.0540   157.2140 h1         1 A1A       0.074700
     66 H2         158.3590   144.0820   155.4150 hn         1 A1A       0.391000
     67 H3         159.2070   142.7120   155.3140 hn         1 A1A       0.391000
     68 H5         156.2490   141.6000   157.2200 h1         1 A1A       0.056700
     69 H6         155.7720   139.7850   158.7190 h1         1 A1A       0.046700
     70 H7         155.5820   144.3760   160.5940 h1         1 A1A       0.030700
     71 H8         157.8190   146.3080   161.3730 h1         1 A1A       0.044700
     72 H9         156.9950   146.1650   159.8280 h1         1 A1A       0.044700
     73 H10        158.2160   146.6190   157.8630 ha         1 A1A       0.107000
     74 H11        162.4930   146.5960   157.8770 ha         1 A1A       0.118000
     75 H12        162.6400   145.5850   161.5200 h1         1 A1A       0.066700
     76 H13        163.3470   144.8940   160.0720 h1         1 A1A       0.066700
     77 H14        152.8930   139.3880   161.7200 h1         1 A1A       0.054700
     78 H15        155.0840   140.0060   160.9660 h1         1 A1A       0.040700
     79 H16        154.9920   142.3190   162.9410 h1         1 A1A       0.125700
     80 H17        157.1120   142.0670   161.8560 h1         1 A1A       0.087700
     81 H18        157.6720   140.4770   160.5540 h2         1 A1A       0.069700
     82 H19        159.3190   143.5260   157.5840 h1         1 A1A       0.050200
     83 H20        157.5610   143.5890   157.5590 h1         1 A1A       0.050200
     84 H21        160.3680   146.9850   156.7020 ha         1 A1A       0.099000
     85 H22        166.6980   147.8920   159.2730 h1         1 A1A       0.090700
     86 H23        164.0100   150.8080   157.3640 hc         1 A1A       0.056700
     87 H24        162.6780   149.8320   157.9260 hc         1 A1A       0.056700
     88 H25        162.6950   148.5430   155.7760 hc         1 A1A       0.056200
     89 H26        164.0290   149.5190   155.1980 hc         1 A1A       0.056200
     90 H27        162.6030   151.5730   155.4070 hc         1 A1A       0.035700
     91 H28        161.2740   150.5850   155.9740 hc         1 A1A       0.035700
     92 H29        161.3020   149.3190   153.8170 hc         1 A1A       0.040200
     93 H30        162.6200   150.3180   153.2440 hc         1 A1A       0.040200
     94 H31        161.1790   152.3560   153.5150 hc         1 A1A       0.036700
     95 H32        159.8390   151.3380   153.9920 hc         1 A1A       0.036700
     96 H33        161.2640   151.2080   151.2890 hc         1 A1A       0.035700
     97 H34        159.7760   152.0710   151.6030 hc         1 A1A       0.035700
     98 H35        158.6640   149.9120   152.2320 hc         1 A1A       0.041200
     99 H36        160.1500   149.0520   151.9040 hc         1 A1A       0.041200
    100 H37        158.7350   148.7780   149.9970 hc         1 A1A       0.036700
    101 H38        160.0670   149.8040   149.5180 hc         1 A1A       0.036700
    102 H39        158.6000   151.8180   149.7320 hc         1 A1A       0.037700
    103 H40        157.2880   150.8060   150.2960 hc         1 A1A       0.037700
    104 H41        157.2920   149.5900   148.1100 hc         1 A1A       0.036200
    105 H42        158.6200   150.5860   147.5550 hc         1 A1A       0.036200
    106 H43        157.1990   152.6250   147.8100 hc         1 A1A       0.037700
    107 H44        155.8630   151.6340   148.3510 hc         1 A1A       0.037700
    108 H45        155.8970   150.3980   146.1730 hc         1 A1A       0.036200
    109 H46        157.1960   151.4250   145.6100 hc         1 A1A       0.036200
    110 H47        154.4010   152.3880   146.3920 hc         1 A1A       0.036700
    111 H48        154.9460   152.0990   144.7560 hc         1 A1A       0.036700
    112 H49        156.7110   153.8600   145.0450 hc         1 A1A       0.037200
    113 H50        156.0970   154.2040   146.6440 hc         1 A1A       0.037200
    114 H51        155.1590   155.8180   145.0020 hc         1 A1A       0.030033
    115 H52        154.4860   154.4940   144.0550 hc         1 A1A       0.030033
    116 H53        153.8670   154.8260   145.6690 hc         1 A1A       0.030033
    117 H54        166.6910   149.6800   160.9630 hc         1 A1A       0.042700
    118 H55        165.2700   149.0000   161.7330 hc         1 A1A       0.042700
    119 H56        166.5430   146.9490   162.3280 hc         1 A1A       0.054700
    120 H57        167.9350   147.5310   161.4400 hc         1 A1A       0.054700
    121 H58        168.1020   149.4870   162.9860 hc         1 A1A       0.043200
    122 H59        166.6970   148.9180   163.8700 hc         1 A1A       0.043200
    123 H60        167.8850   146.8340   164.4710 h1         1 A1A       0.030200
    124 H61        169.2820   147.3370   163.5380 h1         1 A1A       0.030200
    125 H62        160.3290   145.5010   161.4050 ha         1 A1A       0.141000
    126 H63        151.9110   141.9820   161.6610 h2         1 A1A       0.121700
    127 H64        153.6710   141.2710   156.7270 ha         1 A1A       0.217000
    128 H65        154.2210   141.8960   159.0230 h4         1 A1A       0.251000
    129 H66        157.8590   143.8470   159.8220 hn         1 A1A       0.391000
    130 H68        163.3530   147.8220   160.3850 hn         1 A1A       0.309500
    131 H69        164.7020   149.9270   159.5380 hn         1 A1A       0.313500
    132 H70        169.4490   147.8270   165.9150 hn         1 A1A       0.389000
    133 H71        169.4920   149.1950   165.0640 hn         1 A1A       0.389000
    134 H73        150.0870   139.6870   158.2540 hn         1 A1A       0.332500
    135 H74        153.5380   140.1640   163.9890 ho         1 A1A       0.522000
    136 H75        155.6510   138.9470   162.8170 ho         1 A1A       0.499000
    137 H76        156.3300   139.8260   155.8540 ho         1 A1A       0.502000
    138 H77        157.4820   138.3540   159.2750 ho         1 A1A       0.493000
    139 C22        157.8300   145.7630   160.4240 c3         1 A1A       0.208100
    140 C33        164.5190   148.7910   157.8510 c          1 A1A       0.594100
@<TRIPOS>BOND
     1     1     3 1   
     2     1    14 1   
     3     1    55 1   
     4     1    65 1   
     5     2    14 1   
     6     2    66 1   
     7     2    67 1   
     8     3     4 1   
     9     3    56 1   
    10     3    68 1   
    11     4    13 1   
    12     4    57 1   
    13     4    69 1   
    14     5    12 1   
    15     5    15 1   
    16     5    46 1   
    17     5    70 1   
    18     6    16 ar  
    19     6    17 ar  
    20     6    73 1   
    21     7    17 ar  
    22     7    18 ar  
    23     7    74 1   
    24     8    18 1   
    25     8    47 1   
    26     8    75 1   
    27     8    76 1   
    28     9    10 1   
    29     9    41 1   
    30     9    52 1   
    31     9    77 1   
    32    10    11 1   
    33    10    53 1   
    34    10    78 1   
    35    11    12 1   
    36    11    62 1   
    37    11    79 1   
    38    12    54 1   
    39    12    80 1   
    40    13    54 1   
    41    13    55 1   
    42    13    81 1   
    43    14    82 1   
    44    14    83 1   
    45    15    58 1   
    46    15    59 1   
    47    16    40 ar  
    48    16   139 1   
    49    17    84 1   
    50    18    40 ar  
    51    19    20 1   
    52    19    47 1   
    53    19    61 2   
    54    20    36 1   
    55    20    48 1   
    56    20    85 1   
    57    21    22 1   
    58    21    86 1   
    59    21    87 1   
    60    21   140 1   
    61    22    23 1   
    62    22    88 1   
    63    22    89 1   
    64    23    24 1   
    65    23    90 1   
    66    23    91 1   
    67    24    25 1   
    68    24    92 1   
    69    24    93 1   
    70    25    26 1   
    71    25    94 1   
    72    25    95 1   
    73    26    27 1   
    74    26    96 1   
    75    26    97 1   
    76    27    28 1   
    77    27    98 1   
    78    27    99 1   
    79    28    29 1   
    80    28   100 1   
    81    28   101 1   
    82    29    30 1   
    83    29   102 1   
    84    29   103 1   
    85    30    31 1   
    86    30   104 1   
    87    30   105 1   
    88    31    32 1   
    89    31   106 1   
    90    31   107 1   
    91    32    33 1   
    92    32   108 1   
    93    32   109 1   
    94    33    34 1   
    95    33   110 1   
    96    33   111 1   
    97    34    35 1   
    98    34   112 1   
    99    34   113 1   
   100    35   114 1   
   101    35   115 1   
   102    35   116 1   
   103    36    37 1   
   104    36   117 1   
   105    36   118 1   
   106    37    38 1   
   107    37   119 1   
   108    37   120 1   
   109    38    39 1   
   110    38   121 1   
   111    38   122 1   
   112    39    49 1   
   113    39   123 1   
   114    39   124 1   
   115    40   125 1   
   116    41    50 1   
   117    41    62 1   
   118    41   126 1   
   119    42    50 1   
   120    42    51 1   
   121    42    64 2   
   122    43    44 1   
   123    43    51 1   
   124    43    63 2   
   125    44    45 2   
   126    44   127 1   
   127    45    50 1   
   128    45   128 1   
   129    46   129 1   
   130    46   139 1   
   131    47   130 1   
   132    48   131 1   
   133    48   140 1   
   134    49   132 1   
   135    49   133 1   
   136    51   134 1   
   137    52   135 1   
   138    53   136 1   
   139    56   137 1   
   140    57   138 1   
   141    60   140 2   
   142    71   139 1   
   143    72   139 1   
@<TRIPOS>SUBSTRUCTURE
     1 A1A         1 TEMP              0 ****  ****    0 ROOT
