@<TRIPOS>MOLECULE
A1A
   34    36     1     0     0
SMALL
No Charge or Current Charge


@<TRIPOS>ATOM
      1 N1           0.1140    15.5800    -0.6790 nb         1 A1A      -0.308000
      2 N3          -3.5300    15.3110     1.1560 na         1 A1A      -0.157100
      3 C4           0.0460    15.7350    -3.6150 c3         1 A1A       0.241800
      4 C5          -1.0710    15.6880    -1.3110 ca         1 A1A       0.455900
      5 C6           0.0670    15.3660     0.6600 ca         1 A1A       0.197900
      6 C7          -2.2100    15.3670     0.7600 ca         1 A1A       0.159500
      7 C8          -3.6300    15.6490    -0.9650 cc         1 A1A       0.384800
      8 C10         -0.7460    13.4080    -4.4110 c6         1 A1A      -0.301400
      9 S           -0.3850    11.6350    -4.5560 s6         1 A1A       1.081000
     10 O           -1.4110    11.0080    -5.3980 o          1 A1A      -0.516000
     11 C3           0.4340    14.2360    -3.8130 c6         1 A1A      -0.057700
     12 C2           1.7060    14.1130    -4.7000 c6         1 A1A      -0.088400
     13 C1           2.2170    12.6560    -4.8330 c6         1 A1A      -0.055400
     14 C            1.1660    11.7260    -5.4920 c6         1 A1A      -0.299400
     15 N           -1.0810    15.9050    -2.6780 nu         1 A1A      -0.921100
     16 C9          -2.2490    15.5820    -0.5840 ca         1 A1A      -0.396900
     17 N4          -4.4330    15.4840     0.0960 nd         1 A1A      -0.518100
     18 N2          -1.0470    15.2520     1.4250 nb         1 A1A      -0.225000
     19 H           -3.8490    15.1600     2.1120 hn         1 A1A       0.389000
     20 H9           0.9220    16.2900    -3.2520 h1         1 A1A       0.059700
     21 H8          -0.2210    16.1530    -4.5970 h1         1 A1A       0.059700
     22 H11          1.0220    15.2770     1.1740 h5         1 A1A       0.047100
     23 H12         -4.0980    15.8040    -1.9280 h4         1 A1A       0.045800
     24 H14         -1.6400    13.4690    -3.7780 h1         1 A1A       0.099700
     25 H13         -0.9980    13.7490    -5.4230 h1         1 A1A       0.099700
     26 H7           0.6750    13.8470    -2.8130 hc         1 A1A       0.093700
     27 H6           2.5100    14.7290    -4.2730 hc         1 A1A       0.053700
     28 H5           1.5070    14.5250    -5.6990 hc         1 A1A       0.053700
     29 H4           2.4990    12.2670    -3.8430 hc         1 A1A       0.065200
     30 H3           3.1380    12.6480    -5.4340 hc         1 A1A       0.065200
     31 H2           1.5350    10.6950    -5.5650 h1         1 A1A       0.103200
     32 H1           0.8940    12.0840    -6.4930 h1         1 A1A       0.103200
     33 H10         -2.0050    16.0150    -3.0910 hn         1 A1A       0.500000
     34 O1          -0.1020    11.0970    -3.2190 o          1 A1A      -0.516000
@<TRIPOS>BOND
     1     1     4 ar  
     2     1     5 ar  
     3     2     6 1   
     4     2    17 1   
     5     2    19 1   
     6     3    11 1   
     7     3    15 1   
     8     3    20 1   
     9     3    21 1   
    10     4    15 1   
    11     4    16 ar  
    12     5    18 ar  
    13     5    22 1   
    14     6    16 ar  
    15     6    18 ar  
    16     7    16 1   
    17     7    17 2   
    18     7    23 1   
    19     8     9 1   
    20     8    11 1   
    21     8    24 1   
    22     8    25 1   
    23     9    10 2   
    24     9    14 1   
    25     9    34 2   
    26    11    12 1   
    27    11    26 1   
    28    12    13 1   
    29    12    27 1   
    30    12    28 1   
    31    13    14 1   
    32    13    29 1   
    33    13    30 1   
    34    14    31 1   
    35    14    32 1   
    36    15    33 1   
@<TRIPOS>SUBSTRUCTURE
     1 A1A         1 TEMP              0 ****  ****    0 ROOT
