@<TRIPOS>MOLECULE
A1A
   33    35     1     0     0
SMALL
abcg2


@<TRIPOS>ATOM
      1 N1           0.3240    14.7470    -0.6820 nb         1 A1A      -0.306000
      2 N3          -3.1750    15.4440     1.1310 na         1 A1A      -0.317400
      3 C4          -1.9290    15.2000     0.6590 ca         1 A1A       0.150500
      4 C5          -4.0290    15.6390     0.0750 cc         1 A1A      -0.181100
      5 C6          -3.3420    15.5180    -1.0970 cd         1 A1A      -0.208200
      6 C7          -1.9900    15.2350    -0.7370 ca         1 A1A      -0.259800
      7 C8           0.4060    13.1570    -3.9930 c5         1 A1A      -0.118700
      8 C10         -1.7370    12.1470    -3.4990 c5         1 A1A       0.151600
      9 C            0.5790    15.5730    -4.7250 c3         1 A1A      -0.106100
     10 C1           0.4560    14.6250    -3.5390 c3         1 A1A       0.247500
     11 C11          0.4750    12.1500    -2.8500 c5         1 A1A       0.155600
     12 O           -0.8540    11.9640    -2.4060 os         1 A1A      -0.448000
     13 C9          -0.9160    12.7420    -4.6520 c5         1 A1A      -0.112400
     14 N           -0.6980    15.0040    -2.7450 nu         1 A1A      -0.920100
     15 C2          -0.7730    14.9830    -1.4060 ca         1 A1A       0.451900
     16 N2          -0.8350    14.9620     1.3910 nb         1 A1A      -0.233000
     17 C3           0.2310    14.7520     0.6460 ca         1 A1A       0.181900
     18 H1          -3.4290    15.4960     2.1040 hn         1 A1A       0.360000
     19 H8          -5.0720    15.8490     0.2460 h4         1 A1A       0.214000
     20 H9          -3.7580    15.6190    -2.0870 ha         1 A1A       0.198000
     21 H2           1.2470    13.0020    -4.6730 hc         1 A1A       0.064700
     22 H12         -2.5470    12.8130    -3.1850 h1         1 A1A       0.040700
     23 H13         -2.1920    11.1930    -3.7880 h1         1 A1A       0.040700
     24 H5           1.4600    15.3290    -5.3180 hc         1 A1A       0.042033
     25 H4          -0.2910    15.5110    -5.3810 hc         1 A1A       0.042033
     26 H3           0.6730    16.6050    -4.3870 hc         1 A1A       0.042033
     27 H            1.3330    14.7490    -2.9030 h1         1 A1A       0.090700
     28 H14          1.0800    12.4910    -2.0080 h1         1 A1A       0.054200
     29 H15          0.9040    11.2050    -3.2120 h1         1 A1A       0.054200
     30 H10         -1.4360    13.5650    -5.1440 hc         1 A1A       0.049200
     31 H11         -0.7260    11.9890    -5.4170 hc         1 A1A       0.049200
     32 H6          -1.5560    15.1660    -3.2480 hn         1 A1A       0.488000
     33 H7           1.1570    14.5560     1.1780 h5         1 A1A       0.040100
@<TRIPOS>BOND
     1     1    15 ar  
     2     1    17 ar  
     3     2     3 1   
     4     2     4 1   
     5     2    18 1   
     6     3     6 ar  
     7     3    16 ar  
     8     4     5 2   
     9     4    19 1   
    10     5     6 1   
    11     5    20 1   
    12     6    15 ar  
    13     7    10 1   
    14     7    11 1   
    15     7    13 1   
    16     7    21 1   
    17     8    12 1   
    18     8    13 1   
    19     8    22 1   
    20     8    23 1   
    21     9    10 1   
    22     9    24 1   
    23     9    25 1   
    24     9    26 1   
    25    10    14 1   
    26    10    27 1   
    27    11    12 1   
    28    11    28 1   
    29    11    29 1   
    30    13    30 1   
    31    13    31 1   
    32    14    15 1   
    33    14    32 1   
    34    16    17 ar  
    35    17    33 1   
@<TRIPOS>SUBSTRUCTURE
     1 A1A         1 TEMP              0 ****  ****    0 ROOT
