@<TRIPOS>MOLECULE
A1A
   86    89     1     0     0
SMALL
No Charge or Current Charge


@<TRIPOS>ATOM
      1 O22         19.6010    23.4030    16.8950 o          1 A1A      -0.552000
      2 C21         19.2180    24.4730    17.3450 c          1 A1A       0.636100
      3 O23         19.6830    25.7090    17.0110 os         1 A1A      -0.436100
      4 C24         20.7020    25.7260    15.9720 c5         1 A1A       0.168300
      5 C28         21.3530    27.1420    15.8250 c5         1 A1A       0.154300
      6 C41         21.9650    27.7270    17.1700 c5         1 A1A       0.184300
      7 C45         23.0720    26.7490    17.6950 c5         1 A1A      -0.110400
      8 C44         22.4350    26.1710    18.9890 c5         1 A1A      -0.111400
      9 C43         21.5910    27.3800    19.4470 c5         1 A1A       0.159600
     10 O42         20.9730    27.8180    18.2250 os         1 A1A      -0.438000
     11 O27         20.2640    27.9600    15.3500 os         1 A1A      -0.439000
     12 C26         19.5310    27.1740    14.3780 c5         1 A1A       0.168300
     13 C51         18.0240    27.4370    14.5750 c3         1 A1A      -0.095100
     14 C25         19.9680    25.6820    14.6010 c5         1 A1A      -0.139400
     15 N20         18.2440    24.6250    18.2870 ns         1 A1A      -0.498900
     16 C19         17.5070    23.5270    18.9230 c3         1 A1A       0.142700
     17 C32         17.8280    23.4720    20.4430 c3         1 A1A      -0.036100
     18 C38         19.3230    23.3890    20.7410 ca         1 A1A      -0.076300
     19 C37         20.0720    22.2740    20.3160 ca         1 A1A      -0.100500
     20 C36         21.4500    22.2000    20.5840 ca         1 A1A      -0.116000
     21 C35         22.0880    23.2380    21.2830 ca         1 A1A      -0.116000
     22 C34         21.3460    24.3500    21.7160 ca         1 A1A      -0.116000
     23 C33         19.9690    24.4270    21.4430 ca         1 A1A      -0.100500
     24 C17         15.9890    23.6130    18.5720 c3         1 A1A       0.147300
     25 O18         15.3680    24.7150    19.2700 oh         1 A1A      -0.660000
     26 C16         15.2150    22.2910    18.8580 c3         1 A1A       0.172800
     27 N11         15.6720    21.1080    18.0680 n3         1 A1A      -0.716500
     28 C12         14.8670    20.8520    16.8390 c3         1 A1A       0.194800
     29 C13         14.9180    21.9390    15.7320 c3         1 A1A      -0.058700
     30 C15         13.9600    21.5870    14.5710 c3         1 A1A      -0.092100
     31 C14         16.3550    22.1700    15.2020 c3         1 A1A      -0.092100
     32 S8          15.9410    19.7040    19.0110 sy         1 A1A       1.160600
     33 O9          16.8220    20.1110    20.1100 o          1 A1A      -0.534000
     34 O10         16.3570    18.6500    18.0800 o          1 A1A      -0.534000
     35 C5          14.2990    19.3310    19.6460 ca         1 A1A      -0.353500
     36 C4          13.8960    19.8260    20.9020 ca         1 A1A       0.021500
     37 C3          12.6120    19.5340    21.3880 ca         1 A1A      -0.198000
     38 C6          13.4170    18.5340    18.8910 ca         1 A1A       0.021500
     39 C7          12.1330    18.2450    19.3830 ca         1 A1A      -0.198000
     40 C2          11.7260    18.7480    20.6370 ca         1 A1A       0.198100
     41 O39         10.4780    18.4980    21.1700 os         1 A1A      -0.333100
     42 C40          9.4950    17.7040    20.4810 c3         1 A1A       0.145900
     43 H1          21.4380    24.9230    16.1180 h1         1 A1A       0.079700
     44 H2          22.1280    27.1210    15.0450 h1         1 A1A       0.035700
     45 H3          22.3860    28.7270    16.9950 h1         1 A1A       0.065700
     46 H4          23.3620    25.9690    16.9820 hc         1 A1A       0.052700
     47 H5          23.9860    27.3080    17.9290 hc         1 A1A       0.052700
     48 H6          21.8020    25.3000    18.7840 hc         1 A1A       0.059200
     49 H7          23.1810    25.8710    19.7330 hc         1 A1A       0.059200
     50 H8          22.2170    28.1900    19.8470 h1         1 A1A       0.041200
     51 H9          20.8240    27.1160    20.1870 h1         1 A1A       0.041200
     52 H10         19.8150    27.5080    13.3710 h1         1 A1A       0.043700
     53 H11         17.7900    28.4990    14.4340 hc         1 A1A       0.042367
     54 H12         17.4310    26.8660    13.8510 hc         1 A1A       0.042367
     55 H13         17.6970    27.1470    15.5800 hc         1 A1A       0.042367
     56 H14         19.1230    24.9840    14.5850 hc         1 A1A       0.066200
     57 H15         20.6510    25.3610    13.8060 hc         1 A1A       0.066200
     58 H16         18.0350    25.5750    18.5580 hn         1 A1A       0.335500
     59 H17         17.8710    22.5870    18.4870 h1         1 A1A       0.100700
     60 H18         17.3990    24.3550    20.9310 hc         1 A1A       0.063200
     61 H19         17.3240    22.6100    20.8930 hc         1 A1A       0.063200
     62 H20         19.5870    21.4620    19.7780 ha         1 A1A       0.120500
     63 H21         22.0230    21.3380    20.2500 ha         1 A1A       0.109500
     64 H22         23.1540    23.1810    21.4910 ha         1 A1A       0.107000
     65 H23         21.8380    25.1540    22.2580 ha         1 A1A       0.109500
     66 H24         19.4060    25.2950    21.7780 ha         1 A1A       0.120500
     67 H25         15.9320    23.8090    17.4960 h1         1 A1A       0.052700
     68 H26         14.5290    24.9250    18.8030 ho         1 A1A       0.443000
     69 H27         14.1450    22.4630    18.6780 h1         1 A1A       0.053200
     70 H28         15.3000    22.1050    19.9360 h1         1 A1A       0.053200
     71 H29         13.8160    20.6980    17.1200 h1         1 A1A       0.051200
     72 H30         15.1970    19.9210    16.3590 h1         1 A1A       0.051200
     73 H31         14.5480    22.8790    16.1530 hc         1 A1A       0.041700
     74 H32         12.9320    21.4740    14.9370 hc         1 A1A       0.040367
     75 H33         13.9630    22.3790    13.8120 hc         1 A1A       0.040367
     76 H34         14.2580    20.6480    14.0880 hc         1 A1A       0.040367
     77 H35         17.0430    22.4290    16.0130 hc         1 A1A       0.040367
     78 H36         16.7390    21.2670    14.7130 hc         1 A1A       0.040367
     79 H37         16.3720    22.9890    14.4720 hc         1 A1A       0.040367
     80 H38         14.5700    20.4350    21.5040 ha         1 A1A       0.134500
     81 H39         12.3010    19.9180    22.3550 ha         1 A1A       0.129000
     82 H40         13.7190    18.1370    17.9220 ha         1 A1A       0.134500
     83 H41         11.4720    17.6310    18.7790 ha         1 A1A       0.129000
     84 H42          8.5780    17.6320    21.0790 h1         1 A1A       0.047367
     85 H43          9.2350    18.1560    19.5150 h1         1 A1A       0.047367
     86 H44          9.8670    16.6860    20.3070 h1         1 A1A       0.047367
@<TRIPOS>BOND
     1     1     2 2   
     2     2     3 1   
     3     2    15 1   
     4     3     4 1   
     5     4     5 1   
     6     4    14 1   
     7     4    43 1   
     8     5     6 1   
     9     5    11 1   
    10     5    44 1   
    11     6     7 1   
    12     6    10 1   
    13     6    45 1   
    14     7     8 1   
    15     7    46 1   
    16     7    47 1   
    17     8     9 1   
    18     8    48 1   
    19     8    49 1   
    20     9    10 1   
    21     9    50 1   
    22     9    51 1   
    23    11    12 1   
    24    12    13 1   
    25    12    14 1   
    26    12    52 1   
    27    13    53 1   
    28    13    54 1   
    29    13    55 1   
    30    14    56 1   
    31    14    57 1   
    32    15    16 1   
    33    15    58 1   
    34    16    17 1   
    35    16    24 1   
    36    16    59 1   
    37    17    18 1   
    38    17    60 1   
    39    17    61 1   
    40    18    19 ar  
    41    18    23 ar  
    42    19    20 ar  
    43    19    62 1   
    44    20    21 ar  
    45    20    63 1   
    46    21    22 ar  
    47    21    64 1   
    48    22    23 ar  
    49    22    65 1   
    50    23    66 1   
    51    24    25 1   
    52    24    26 1   
    53    24    67 1   
    54    25    68 1   
    55    26    27 1   
    56    26    69 1   
    57    26    70 1   
    58    27    28 1   
    59    27    32 1   
    60    28    29 1   
    61    28    71 1   
    62    28    72 1   
    63    29    30 1   
    64    29    31 1   
    65    29    73 1   
    66    30    74 1   
    67    30    75 1   
    68    30    76 1   
    69    31    77 1   
    70    31    78 1   
    71    31    79 1   
    72    32    33 2   
    73    32    34 2   
    74    32    35 1   
    75    35    36 ar  
    76    35    38 ar  
    77    36    37 ar  
    78    36    80 1   
    79    37    40 ar  
    80    37    81 1   
    81    38    39 ar  
    82    38    82 1   
    83    39    40 ar  
    84    39    83 1   
    85    40    41 1   
    86    41    42 1   
    87    42    84 1   
    88    42    85 1   
    89    42    86 1   
@<TRIPOS>SUBSTRUCTURE
     1 A1A         1 TEMP              0 ****  ****    0 ROOT
