@<TRIPOS>MOLECULE
A1A
   14    13     1     0     0
SMALL
No Charge or Current Charge


@<TRIPOS>ATOM
      1 N01        166.3290   174.6860   182.4070 n8         1 A1A      -1.006200
      2 C02        166.0000   174.8950   180.9830 c3         1 A1A       0.149800
      3 C03        167.2150   174.6550   180.0620 c3         1 A1A      -0.068400
      4 C04        168.3820   175.6500   180.2880 c3         1 A1A      -0.017300
      5 C05        169.5060   175.4310   179.3700 c1         1 A1A       0.300900
      6 N06        170.3810   175.2610   178.6200 n1         1 A1A      -0.473000
      7 H1         165.4760   174.8060   182.9690 hn         1 A1A       0.397000
      8 H2         166.5720   173.6980   182.5530 hn         1 A1A       0.397000
      9 H4         165.6340   175.9230   180.8510 h1         1 A1A       0.031700
     10 H5         165.1910   174.2050   180.7060 h1         1 A1A       0.031700
     11 H6         166.8750   174.7330   179.0210 hc         1 A1A       0.049200
     12 H7         167.5750   173.6260   180.1970 hc         1 A1A       0.049200
     13 H8         168.7550   175.5650   181.3150 hc         1 A1A       0.079700
     14 H9         168.0230   176.6770   180.1590 hc         1 A1A       0.079700
@<TRIPOS>BOND
     1     1     2 1   
     2     1     7 1   
     3     1     8 1   
     4     2     3 1   
     5     2     9 1   
     6     2    10 1   
     7     3     4 1   
     8     3    11 1   
     9     3    12 1   
    10     4     5 1   
    11     4    13 1   
    12     4    14 1   
    13     5     6 3   
@<TRIPOS>SUBSTRUCTURE
     1 A1A         1 TEMP              0 ****  ****    0 ROOT
