@<TRIPOS>MOLECULE
A1A
   61    65     1     0     0
SMALL
abcg2


@<TRIPOS>ATOM
      1 N1          12.7160   -17.9410    16.9890 na         1 A1A       0.140800
      2 N3           5.5530   -14.3360    15.9180 nb         1 A1A      -0.297000
      3 C4          10.6700   -17.1740    17.0840 cc         1 A1A      -0.159800
      4 C5           9.4350   -16.4850    16.7880 cc         1 A1A       0.035700
      5 C6           8.1770   -16.6470    17.3160 cd         1 A1A      -0.202200
      6 C7           7.3340   -15.7070    16.6590 ca         1 A1A      -0.250800
      7 C8           5.9800   -15.3230    16.7070 ca         1 A1A       0.429900
      8 C10          3.7860   -14.2030    18.6210 ca         1 A1A      -0.111300
      9 C13          3.7850   -11.8990    20.2690 ca         1 A1A       0.012700
     10 C15          4.4250   -14.2140    19.8500 ca         1 A1A      -0.009000
     11 C17          4.7430   -10.5740    22.2350 c6         1 A1A      -0.056400
     12 C22          6.4240   -13.7550    15.0940 ca         1 A1A       0.173900
     13 S            5.3400   -13.2050    22.1660 sy         1 A1A       1.049500
     14 O            4.9880   -14.4600    22.8280 o          1 A1A      -0.523000
     15 C16          4.7410   -11.8170    23.1090 c6         1 A1A      -0.305400
     16 C18          3.6990   -10.6680    21.1330 c6         1 A1A      -0.049100
     17 C12          3.1560   -11.9060    19.0250 ca         1 A1A      -0.131000
     18 C11          3.1590   -13.0290    18.2160 ca         1 A1A      -0.029000
     19 C14          4.4200   -13.0800    20.6530 ca         1 A1A      -0.246500
     20 C9           3.7600   -15.4470    17.7590 c3         1 A1A       0.286800
     21 C19          2.8990   -16.5630    18.3760 c3         1 A1A      -0.069700
     22 N2           5.1010   -15.9390    17.5190 nu         1 A1A      -0.920100
     23 N4           7.7060   -14.0210    14.9430 nb         1 A1A      -0.229000
     24 C23          8.1240   -15.0020    15.7460 ca         1 A1A       0.149500
     25 N5           9.3850   -15.4880    15.8350 na         1 A1A      -0.317400
     26 C1          10.9840   -17.9750    18.2090 cc         1 A1A       0.286300
     27 C           10.1220   -18.3130    19.3730 c3         1 A1A      -0.123400
     28 C3          11.8290   -17.1870    16.3280 cd         1 A1A      -0.164000
     29 N           12.2230   -18.4240    18.1260 nd         1 A1A      -0.525800
     30 C2          14.0680   -18.2540    16.5960 c3         1 A1A       0.073900
     31 H9           7.8920   -17.3660    18.0660 ha         1 A1A       0.203000
     32 H13          4.9260   -15.1150    20.1890 ha         1 A1A       0.126000
     33 H16          4.5260    -9.7110    22.8650 hc         1 A1A       0.066200
     34 H17          5.7390   -10.4080    21.8180 hc         1 A1A       0.066200
     35 H22          2.2080   -18.5540    17.8970 hc         1 A1A       0.038700
     36 H21          2.3680   -17.4980    16.4960 hc         1 A1A       0.038700
     37 H23          3.8020   -18.2040    17.2410 hc         1 A1A       0.038700
     38 H25          0.8870   -16.8630    19.0980 hc         1 A1A       0.038700
     39 H26          1.4980   -15.2450    19.4160 hc         1 A1A       0.038700
     40 H24          1.0000   -15.6950    17.7850 hc         1 A1A       0.038700
     41 H27          6.0210   -12.9610    14.4730 h5         1 A1A       0.041100
     42 H15          3.7400   -12.0650    23.4660 h1         1 A1A       0.105700
     43 H14          5.4100   -11.7340    23.9680 h1         1 A1A       0.105700
     44 H18          2.7040   -10.6460    21.5880 hc         1 A1A       0.063700
     45 H19          3.7590    -9.7840    20.4960 hc         1 A1A       0.063700
     46 H12          2.6570   -11.0060    18.6870 ha         1 A1A       0.116000
     47 H11          2.6630   -12.9950    17.2530 ha         1 A1A       0.124000
     48 H            3.3180   -15.1850    16.7940 h1         1 A1A       0.086700
     49 H20          3.3710   -16.8700    19.3180 hc         1 A1A       0.049700
     50 H10          5.4710   -16.6140    18.1710 hn         1 A1A       0.493000
     51 H1          10.1710   -15.1340    15.3140 hn         1 A1A       0.357000
     52 H4          10.7010   -18.8210    20.1420 hc         1 A1A       0.051367
     53 H3           9.6810   -17.4180    19.8130 hc         1 A1A       0.051367
     54 H2           9.2990   -18.9700    19.0870 hc         1 A1A       0.051367
     55 H8          12.0720   -16.7280    15.3830 h4         1 A1A       0.151000
     56 H7          14.1920   -19.3300    16.4880 h1         1 A1A       0.058033
     57 H5          14.2770   -17.7790    15.6420 h1         1 A1A       0.058033
     58 H6          14.7740   -17.8860    17.3370 h1         1 A1A       0.058033
     59 C20          2.8240   -17.7730    17.4500 c3         1 A1A      -0.087600
     60 C21          1.4960   -16.0560    18.6890 c3         1 A1A      -0.087600
     61 O1           6.7520   -12.9780    21.8570 o          1 A1A      -0.523000
@<TRIPOS>BOND
     1     1    28 1   
     2     1    29 1   
     3     1    30 1   
     4     2     7 ar  
     5     2    12 ar  
     6     3     4 1   
     7     3    26 1   
     8     3    28 2   
     9     4     5 2   
    10     4    25 1   
    11     5     6 1   
    12     5    31 1   
    13     6     7 ar  
    14     6    24 ar  
    15     7    22 1   
    16     8    10 ar  
    17     8    18 ar  
    18     8    20 1   
    19     9    16 1   
    20     9    17 ar  
    21     9    19 ar  
    22    10    19 ar  
    23    10    32 1   
    24    11    15 1   
    25    11    16 1   
    26    11    33 1   
    27    11    34 1   
    28    12    23 ar  
    29    12    41 1   
    30    13    14 2   
    31    13    15 1   
    32    13    19 1   
    33    13    61 2   
    34    15    42 1   
    35    15    43 1   
    36    16    44 1   
    37    16    45 1   
    38    17    18 ar  
    39    17    46 1   
    40    18    47 1   
    41    20    21 1   
    42    20    22 1   
    43    20    48 1   
    44    21    49 1   
    45    21    59 1   
    46    21    60 1   
    47    22    50 1   
    48    23    24 ar  
    49    24    25 1   
    50    25    51 1   
    51    26    27 1   
    52    26    29 2   
    53    27    52 1   
    54    27    53 1   
    55    27    54 1   
    56    28    55 1   
    57    30    56 1   
    58    30    57 1   
    59    30    58 1   
    60    35    59 1   
    61    36    59 1   
    62    37    59 1   
    63    38    60 1   
    64    39    60 1   
    65    40    60 1   
@<TRIPOS>SUBSTRUCTURE
     1 A1A         1 TEMP              0 ****  ****    0 ROOT
