@<TRIPOS>MOLECULE
A1A
   40    43     1     0     0
SMALL
abcg2


@<TRIPOS>ATOM
      1 N1          -7.4070    16.1570     5.1940 ns         1 A1A      -0.169000
      2 N3          -6.6980    14.1180    -0.0060 nb         1 A1A      -0.664000
      3 C4         -10.2380    18.1840     7.5020 ca         1 A1A      -0.130000
      4 C5          -9.9380    18.6430     6.2290 ca         1 A1A      -0.087000
      5 C6          -9.0160    17.9710     5.4440 ca         1 A1A      -0.121000
      6 C7          -8.4400    16.7870     5.8990 ca         1 A1A      -0.010000
      7 C8          -7.3660    15.9690     3.8410 c          1 A1A       0.654100
      8 C10         -6.8400    14.3620     1.2780 ca         1 A1A       0.399900
      9 C13         -4.6530    15.4430     0.0930 ca         1 A1A      -0.260900
     10 C15         -8.8250    16.2380     7.1360 ca         1 A1A       0.161000
     11 O1          -8.2560    16.3000     3.0790 o          1 A1A      -0.603100
     12 C3          -9.6710    17.0030     7.9530 ca         1 A1A       0.096100
     13 O           -9.9220    16.6080     9.2260 os         1 A1A      -0.338100
     14 C2          -8.8240    15.9000     9.7850 c6         1 A1A       0.144600
     15 C1          -8.5640    14.6640     8.9660 c6         1 A1A       0.147800
     16 N           -8.3180    15.0010     7.5690 nh         1 A1A      -0.776400
     17 C           -8.6110    13.8480     6.7270 c3         1 A1A       0.171100
     18 N2          -6.2190    15.3480     3.4140 ns         1 A1A      -0.173000
     19 C9          -5.9580    15.1570     2.0470 ca         1 A1A      -0.123000
     20 C14         -4.8430    15.7080     1.4510 ca         1 A1A      -0.031000
     21 C11         -5.6200    14.6640    -0.5610 ca         1 A1A       0.365500
     22 C12         -3.7220    15.7690    -0.9260 cc         1 A1A       0.360800
     23 N5          -4.0890    15.2430    -2.0680 nd         1 A1A      -0.504100
     24 N4          -5.2250    14.5790    -1.8500 na         1 A1A      -0.159100
     25 H11         -6.7080    15.7060     5.7670 hn         1 A1A       0.163000
     26 H8         -10.9040    18.7360     8.1530 ha         1 A1A       0.130000
     27 H9         -10.3830    19.5610     5.8680 ha         1 A1A       0.121000
     28 H10         -8.7180    18.3850     4.4930 ha         1 A1A       0.137000
     29 H6          -9.0940    15.6300    10.8040 h1         1 A1A       0.062700
     30 H7          -7.9410    16.5490     9.8220 h1         1 A1A       0.062700
     31 H4          -9.4350    14.0030     9.0560 h1         1 A1A       0.050200
     32 H5          -7.7050    14.1190     9.3690 h1         1 A1A       0.050200
     33 H1          -8.3500    14.0190     5.6870 h1         1 A1A       0.039700
     34 H2          -8.0210    13.0000     7.0760 h1         1 A1A       0.039700
     35 H3          -9.6700    13.5670     6.7730 h1         1 A1A       0.039700
     36 H12         -5.4290    15.2950     4.0400 hn         1 A1A       0.150000
     37 H15         -4.1520    16.3200     2.0170 ha         1 A1A       0.125000
     38 H14         -2.8220    16.3600    -0.8550 h4         1 A1A       0.052800
     39 H           -5.6830    14.0930    -2.6060 hn         1 A1A       0.389000
     40 H13         -7.6950    13.9090     1.7650 h4         1 A1A       0.037100
@<TRIPOS>BOND
     1     1     6 1   
     2     1     7 1   
     3     1    25 1   
     4     2     8 ar  
     5     2    21 ar  
     6     3     4 ar  
     7     3    12 ar  
     8     3    26 1   
     9     4     5 ar  
    10     4    27 1   
    11     5     6 ar  
    12     5    28 1   
    13     6    10 ar  
    14     7    11 2   
    15     7    18 1   
    16     8    19 ar  
    17     8    40 1   
    18     9    20 ar  
    19     9    21 ar  
    20     9    22 1   
    21    10    12 ar  
    22    10    16 1   
    23    12    13 1   
    24    13    14 1   
    25    14    15 1   
    26    14    29 1   
    27    14    30 1   
    28    15    16 1   
    29    15    31 1   
    30    15    32 1   
    31    16    17 1   
    32    17    33 1   
    33    17    34 1   
    34    17    35 1   
    35    18    19 1   
    36    18    36 1   
    37    19    20 ar  
    38    20    37 1   
    39    21    24 1   
    40    22    23 2   
    41    22    38 1   
    42    23    24 1   
    43    24    39 1   
@<TRIPOS>SUBSTRUCTURE
     1 A1A         1 TEMP              0 ****  ****    0 ROOT
