@<TRIPOS>MOLECULE
A1A
   50    52     1     0     0
SMALL
No Charge or Current Charge


@<TRIPOS>ATOM
      1 N1          -5.6470    14.8120     0.5070 ns         1 A1A      -0.162000
      2 C4          -3.1390    14.0680    -2.8670 ca         1 A1A      -0.159600
      3 C5          -4.4610    14.5260    -3.0600 ca         1 A1A      -0.040500
      4 C6          -5.3070    14.7790    -1.9660 ca         1 A1A      -0.173500
      5 C7          -4.8520    14.5790    -0.6480 ca         1 A1A      -0.004000
      6 C8          -6.9520    15.2530     0.6690 c          1 A1A       0.664100
      7 C10         -8.7580    16.0680     3.9250 cx         1 A1A      -0.135900
      8 C13         -2.6870    13.8670    -1.5410 ca         1 A1A      -0.040500
      9 C15         -0.6180    10.6000    -4.7800 ca         1 A1A      -0.050000
     10 C17         -0.6060     9.2520    -6.8090 ca         1 A1A      -0.095000
     11 C20          0.0180    11.6010    -6.9030 ca         1 A1A      -0.056000
     12 F1          -0.7480    11.0790    -9.7540 f          1 A1A      -0.130500
     13 F            1.3270    10.5460    -9.3840 f          1 A1A      -0.130500
     14 C18         -0.1840    10.3680    -7.5550 ca         1 A1A      -0.187300
     15 C16         -0.8220     9.3690    -5.4260 ca         1 A1A      -0.123000
     16 C14         -0.1960    11.7280    -5.5150 ca         1 A1A      -0.066300
     17 C2           0.0280    13.0830    -4.8390 c3         1 A1A       0.168000
     18 C1           1.4490    13.2340    -4.2490 c3         1 A1A      -0.221400
     19 C            1.6190    12.3920    -2.9800 c          1 A1A       0.717000
     20 O1           2.1300    11.2880    -3.0790 o          1 A1A      -0.728500
     21 O            1.1750    12.8450    -1.9350 o          1 A1A      -0.728500
     22 N           -0.9800    13.3760    -3.8230 ns         1 A1A      -0.494900
     23 C3          -2.2610    13.8060    -4.0740 c          1 A1A       0.604700
     24 O2          -2.6640    13.9680    -5.2190 o          1 A1A      -0.646100
     25 C12         -3.5380    14.1220    -0.4510 ca         1 A1A      -0.173500
     26 O3          -7.7210    15.5460    -0.2370 o          1 A1A      -0.614100
     27 N2          -7.3150    15.3340     1.9940 ns         1 A1A      -0.510900
     28 C9          -8.6070    15.7630     2.4550 cx         1 A1A       0.066700
     29 C11         -8.7450    17.1920     2.9180 cx         1 A1A      -0.135900
     30 H7          -5.1650    14.6190     1.3740 hn         1 A1A       0.140000
     31 H5          -4.8420    14.6900    -4.0670 ha         1 A1A       0.135500
     32 H6          -6.3130    15.1310    -2.1690 ha         1 A1A       0.121000
     33 H11         -9.7060    15.8190     4.3950 hc         1 A1A       0.076200
     34 H10         -7.8880    15.9530     4.5670 hc         1 A1A       0.076200
     35 H15         -1.6810    13.5130    -1.3310 ha         1 A1A       0.135500
     36 H16         -0.7850    10.6720    -3.7080 ha         1 A1A       0.142000
     37 H18         -0.7670     8.2930    -7.2980 ha         1 A1A       0.094000
     38 H20          0.3440    12.4660    -7.4780 ha         1 A1A       0.117000
     39 H19         -0.1530     9.2160    -9.3890 h2         1 A1A       0.045700
     40 H17         -1.1460     8.5040    -4.8530 ha         1 A1A       0.105000
     41 H           -0.0690    13.8540    -5.6150 h1         1 A1A       0.043700
     42 H2           1.5260    14.2970    -3.9910 hc         1 A1A       0.038200
     43 H3           2.1570    12.9250    -5.0270 hc         1 A1A       0.038200
     44 H4          -0.6950    13.3010    -2.8540 hn         1 A1A       0.383500
     45 H14         -3.1660    13.9600     0.5580 ha         1 A1A       0.121000
     46 H8          -6.6140    15.0660     2.6730 hn         1 A1A       0.311500
     47 H9          -9.4500    15.3030     1.9370 h1         1 A1A       0.082700
     48 H13         -9.6840    17.6990     2.7100 hc         1 A1A       0.076200
     49 H12         -7.8650    17.8290     2.8770 hc         1 A1A       0.076200
     50 C19          0.0510    10.2400    -9.0560 c3         1 A1A       0.229600
@<TRIPOS>BOND
     1     1     5 1   
     2     1     6 1   
     3     1    30 1   
     4     2     3 ar  
     5     2     8 ar  
     6     2    23 1   
     7     3     4 ar  
     8     3    31 1   
     9     4     5 ar  
    10     4    32 1   
    11     5    25 ar  
    12     6    26 2   
    13     6    27 1   
    14     7    28 1   
    15     7    29 1   
    16     7    33 1   
    17     7    34 1   
    18     8    25 ar  
    19     8    35 1   
    20     9    15 ar  
    21     9    16 ar  
    22     9    36 1   
    23    10    14 ar  
    24    10    15 ar  
    25    10    37 1   
    26    11    14 ar  
    27    11    16 ar  
    28    11    38 1   
    29    12    50 1   
    30    13    50 1   
    31    14    50 1   
    32    15    40 1   
    33    16    17 1   
    34    17    18 1   
    35    17    22 1   
    36    17    41 1   
    37    18    19 1   
    38    18    42 1   
    39    18    43 1   
    40    19    20 1   
    41    19    21 1   
    42    22    23 1   
    43    22    44 1   
    44    23    24 2   
    45    25    45 1   
    46    27    28 1   
    47    27    46 1   
    48    28    29 1   
    49    28    47 1   
    50    29    48 1   
    51    29    49 1   
    52    39    50 1   
@<TRIPOS>SUBSTRUCTURE
     1 A1A         1 TEMP              0 ****  ****    0 ROOT
