@<TRIPOS>MOLECULE
A1A
   14    13     1     0     0
SMALL
abcg2


@<TRIPOS>ATOM
      1 N01        166.4290   174.6660   182.3580 n8         1 A1A      -1.006200
      2 C02        166.0160   174.8640   180.9780 c3         1 A1A       0.149800
      3 C03        167.1810   174.6550   180.0220 c3         1 A1A      -0.068400
      4 C04        168.3150   175.6480   180.2950 c3         1 A1A      -0.017300
      5 C05        169.4740   175.4110   179.4510 c1         1 A1A       0.300900
      6 N06        170.3890   175.2090   178.7830 n1         1 A1A      -0.473000
      7 H1         165.6750   174.9220   182.9820 hn         1 A1A       0.397000
      8 H2         166.6020   173.6820   182.5200 hn         1 A1A       0.397000
      9 H4         165.6460   175.8870   180.8730 h1         1 A1A       0.031700
     10 H5         165.1950   174.2050   180.6640 h1         1 A1A       0.031700
     11 H6         166.8300   174.7700   178.9950 hc         1 A1A       0.049200
     12 H7         167.5560   173.6330   180.1160 hc         1 A1A       0.049200
     13 H8         168.6300   175.5850   181.3380 hc         1 A1A       0.079700
     14 H9         167.9750   176.6730   180.1250 hc         1 A1A       0.079700
@<TRIPOS>BOND
     1     1     2 1   
     2     1     7 1   
     3     1     8 1   
     4     2     3 1   
     5     2     9 1   
     6     2    10 1   
     7     3     4 1   
     8     3    11 1   
     9     3    12 1   
    10     4     5 1   
    11     4    13 1   
    12     4    14 1   
    13     5     6 3   
@<TRIPOS>SUBSTRUCTURE
     1 A1A         1 TEMP              0 ****  ****    0 ROOT
