@<TRIPOS>MOLECULE
A1A
   34    36     1     0     0
SMALL
abcg2


@<TRIPOS>ATOM
      1 N1          -3.9180    15.4850    -3.8650 nb         1 A1A      -0.199000
      2 N3          -5.3510    15.4930    -0.1290 na         1 A1A      -0.330400
      3 C4          -1.8280    13.2850    -4.2400 c5         1 A1A       0.106000
      4 C5          -1.6190    15.4540    -3.0460 c          1 A1A       0.519600
      5 C6          -3.1040    15.4420    -2.8190 ca         1 A1A       0.146500
      6 C7          -5.2320    15.5440    -3.6430 ca         1 A1A       0.124900
      7 C8          -5.0200    15.5040    -1.4380 ca         1 A1A       0.111500
      8 C10         -3.1080    15.4280    -0.1900 cc         1 A1A      -0.160200
      9 O3          -0.9660    16.3580    -2.5380 o          1 A1A      -0.625100
     10 N           -1.0990    14.4690    -3.7760 n          1 A1A      -0.346800
     11 C3          -0.7420    12.4270    -4.8700 c5         1 A1A      -0.070400
     12 C12          0.3410    14.3060    -3.8970 c5         1 A1A       0.086000
     13 C1           0.5320    12.7960    -4.1040 c5         1 A1A       0.016000
     14 C2           0.5470    12.0080    -2.7560 c          1 A1A       0.708000
     15 O2          -0.0100    12.5640    -1.7900 o          1 A1A      -0.712500
     16 O1           1.0590    10.8760    -2.7860 o          1 A1A      -0.712500
     17 O            1.6330    12.4950    -4.9230 os         1 A1A      -0.446000
     18 C            2.8810    12.8890    -4.4110 c3         1 A1A       0.164900
     19 C11         -3.6090    15.4620    -1.5250 ca         1 A1A      -0.152800
     20 C9          -4.2030    15.4450     0.6220 cd         1 A1A      -0.189100
     21 N2          -5.8450    15.5510    -2.4730 nb         1 A1A      -0.209000
     22 H           -6.2900    15.5150     0.2390 hn         1 A1A       0.351000
     23 H9          -5.8640    15.5900    -4.5230 h5         1 A1A       0.037100
     24 H11         -2.0800    15.3950     0.1310 ha         1 A1A       0.237000
     25 H5          -0.6100    12.6960    -5.9210 hc         1 A1A       0.048200
     26 H6          -0.9800    11.3640    -4.8270 hc         1 A1A       0.048200
     27 H12          0.7140    14.8570    -4.7680 h1         1 A1A       0.049200
     28 H13          0.8470    14.6920    -3.0140 h1         1 A1A       0.049200
     29 H2           3.6440    12.5430    -5.1080 h1         1 A1A       0.015367
     30 H1           2.9770    13.9770    -4.3270 h1         1 A1A       0.015367
     31 H3           3.0960    12.4520    -3.4310 h1         1 A1A       0.015367
     32 H10         -4.2590    15.4320     1.6980 h4         1 A1A       0.209000
     33 H7          -2.6000    13.5490    -4.9590 h1         1 A1A       0.047700
     34 H8          -2.3060    12.7770    -3.4010 h1         1 A1A       0.047700
@<TRIPOS>BOND
     1     1     5 ar  
     2     1     6 ar  
     3     2     7 1   
     4     2    20 1   
     5     2    22 1   
     6     3    10 1   
     7     3    11 1   
     8     3    33 1   
     9     3    34 1   
    10     4     5 1   
    11     4     9 2   
    12     4    10 1   
    13     5    19 ar  
    14     6    21 ar  
    15     6    23 1   
    16     7    19 ar  
    17     7    21 ar  
    18     8    19 1   
    19     8    20 2   
    20     8    24 1   
    21    10    12 1   
    22    11    13 1   
    23    11    25 1   
    24    11    26 1   
    25    12    13 1   
    26    12    27 1   
    27    12    28 1   
    28    13    14 1   
    29    13    17 1   
    30    14    15 1   
    31    14    16 1   
    32    17    18 1   
    33    18    29 1   
    34    18    30 1   
    35    18    31 1   
    36    20    32 1   
@<TRIPOS>SUBSTRUCTURE
     1 A1A         1 TEMP              0 ****  ****    0 ROOT
