@<TRIPOS>MOLECULE
A1A
   22    23     1     0     0
SMALL
No Charge or Current Charge


@<TRIPOS>ATOM
      1 N1          -5.4440     6.2530   -17.2100 na         1 A1A       0.049900
      2 C4          -4.8510     6.7560   -15.9590 c3         1 A1A      -0.078400
      3 C5          -5.4470     8.0940   -15.4950 c          1 A1A       0.721000
      4 C6          -5.5790     5.5420   -19.2090 cc         1 A1A       0.321800
      5 C7          -6.9020     5.5050   -18.6410 ca         1 A1A      -0.273900
      6 C8          -8.1200     5.0930   -19.1890 ca         1 A1A      -0.010000
      7 O           -5.8570     8.1730   -14.3450 o          1 A1A      -0.711500
      8 O1          -5.4460     9.0360   -16.2760 o          1 A1A      -0.711500
      9 N2          -4.6680     5.9920   -18.3390 nd         1 A1A      -0.492100
     10 C3          -6.7960     5.9610   -17.3580 ca         1 A1A       0.376500
     11 N           -7.8540     6.0440   -16.5220 nb         1 A1A      -0.643000
     12 C2          -9.0550     5.6560   -17.0180 ca         1 A1A       0.356900
     13 C1          -9.2380     5.1750   -18.3380 ca         1 A1A      -0.199300
     14 C          -10.6160     4.7570   -18.8300 c3         1 A1A      -0.023800
     15 H5          -5.0040     6.0090   -15.1720 h1         1 A1A       0.053200
     16 H4          -3.7720     6.8970   -16.0970 h1         1 A1A       0.053200
     17 H7          -5.2280     5.2640   -20.1930 h4         1 A1A       0.029800
     18 H8          -8.1960     4.7300   -20.2130 ha         1 A1A       0.100000
     19 H3          -9.8990     5.7320   -16.3340 h4         1 A1A       0.000100
     20 H          -11.1010     5.5760   -19.3740 hc         1 A1A       0.027033
     21 H1         -10.5520     3.8960   -19.5060 hc         1 A1A       0.027033
     22 H2         -11.2700     4.4750   -17.9960 hc         1 A1A       0.027033
@<TRIPOS>BOND
     1     1     2 1   
     2     1     9 1   
     3     1    10 1   
     4     2     3 1   
     5     2    15 1   
     6     2    16 1   
     7     3     7 1   
     8     3     8 1   
     9     4     5 1   
    10     4     9 2   
    11     4    17 1   
    12     5     6 ar  
    13     5    10 ar  
    14     6    13 ar  
    15     6    18 1   
    16    10    11 ar  
    17    11    12 ar  
    18    12    13 ar  
    19    12    19 1   
    20    13    14 1   
    21    14    20 1   
    22    14    21 1   
    23    14    22 1   
@<TRIPOS>SUBSTRUCTURE
     1 A1A         1 TEMP              0 ****  ****    0 ROOT
