@<TRIPOS>MOLECULE
A1A
   46    49     1     0     0
SMALL
abcg2


@<TRIPOS>ATOM
      1 N1           1.4720     9.5510    -8.7460 ns         1 A1A      -0.160000
      2 N3           5.0790     9.6560   -12.7770 na         1 A1A      -0.162100
      3 C4          -1.0050    10.8070    -4.9440 ca         1 A1A      -0.311500
      4 C5          -1.2030    13.8740    -4.1690 ca         1 A1A       0.197000
      5 C6          -2.4460    14.2780    -3.6920 ca         1 A1A      -0.068000
      6 C7          -3.2450    15.1240    -4.4450 ca         1 A1A      -0.117000
      7 C8          -2.8020    15.5980    -5.6720 ca         1 A1A      -0.083000
      8 C10         -0.7820    14.3660    -5.4000 ca         1 A1A       0.150000
      9 C13          1.0520    10.6450    -8.0710 c          1 A1A       0.614700
     10 C15          3.5860     8.8200    -9.6940 ca         1 A1A       0.372900
     11 C17          3.4230    10.9380   -13.1650 cc         1 A1A       0.365800
     12 O2           1.5470    11.7480    -8.2070 o          1 A1A      -0.565100
     13 C14          2.4170     9.6020    -9.7900 ca         1 A1A      -0.143000
     14 C19          2.2030    10.3840   -10.9080 ca         1 A1A       0.008000
     15 C18          3.1860    10.3530   -11.8930 ca         1 A1A      -0.262900
     16 N4           4.5530    10.5060   -13.6640 nd         1 A1A      -0.501100
     17 C16          4.2980     9.5200   -11.6840 ca         1 A1A       0.368500
     18 N2           4.5200     8.7550   -10.6200 nb         1 A1A      -0.664000
     19 C12         -0.0930    10.4230    -7.1300 ca         1 A1A      -0.172600
     20 C1          -1.3230     9.9090    -7.5650 ca         1 A1A       0.005700
     21 C           -1.5640     9.4470    -8.9730 c3         1 A1A      -0.062800
     22 C11          0.0620    10.8730    -5.8250 ca         1 A1A       0.030000
     23 C3          -2.2310    10.3030    -5.3490 ca         1 A1A       0.014000
     24 C2          -2.3730     9.8570    -6.6510 ca         1 A1A      -0.140000
     25 O            0.3220    10.7480    -2.6590 o          1 A1A      -0.528000
     26 O1          -2.1200    11.3460    -2.6560 o          1 A1A      -0.528000
     27 N           -0.3820    13.0030    -3.4190 nu         1 A1A      -0.869100
     28 F            0.4250    14.0040    -5.8550 f          1 A1A      -0.170000
     29 C9          -1.5550    15.2250    -6.1540 ca         1 A1A      -0.138000
     30 H12          1.1130     8.6460    -8.4780 hn         1 A1A       0.163000
     31 H            5.9600     9.2060   -12.9690 hn         1 A1A       0.389000
     32 H7          -2.7780    13.9330    -2.7230 ha         1 A1A       0.147000
     33 H8          -4.2110    15.4250    -4.0630 ha         1 A1A       0.125000
     34 H9          -3.4210    16.2650    -6.2560 ha         1 A1A       0.122000
     35 H13          3.7370     8.2160    -8.8050 h4         1 A1A       0.026100
     36 H14          2.8110    11.6410   -13.7100 h4         1 A1A       0.055800
     37 H15          1.3050    10.9790   -11.0160 ha         1 A1A       0.135000
     38 H2          -1.1230    10.1150    -9.7110 hc         1 A1A       0.053033
     39 H1          -1.1490     8.4530    -9.1450 hc         1 A1A       0.053033
     40 H3          -2.6320     9.3870    -9.1740 hc         1 A1A       0.053033
     41 H11          1.0180    11.2730    -5.5100 ha         1 A1A       0.136000
     42 H5          -3.0710    10.2620    -4.6710 ha         1 A1A       0.147000
     43 H4          -3.3340     9.4760    -6.9730 ha         1 A1A       0.122000
     44 H6           0.6190    13.1180    -3.5430 hn         1 A1A       0.503000
     45 H10         -1.1870    15.5890    -7.1040 ha         1 A1A       0.138000
     46 S           -0.8140    11.3990    -3.2840 sy         1 A1A       1.150600
@<TRIPOS>BOND
     1     1     9 1   
     2     1    13 1   
     3     1    30 1   
     4     2    16 1   
     5     2    17 1   
     6     2    31 1   
     7     3    22 ar  
     8     3    23 ar  
     9     3    46 1   
    10     4     5 ar  
    11     4     8 ar  
    12     4    27 1   
    13     5     6 ar  
    14     5    32 1   
    15     6     7 ar  
    16     6    33 1   
    17     7    29 ar  
    18     7    34 1   
    19     8    28 1   
    20     8    29 ar  
    21     9    12 2   
    22     9    19 1   
    23    10    13 ar  
    24    10    18 ar  
    25    10    35 1   
    26    11    15 1   
    27    11    16 2   
    28    11    36 1   
    29    13    14 ar  
    30    14    15 ar  
    31    14    37 1   
    32    15    17 ar  
    33    17    18 ar  
    34    19    20 ar  
    35    19    22 ar  
    36    20    21 1   
    37    20    24 ar  
    38    21    38 1   
    39    21    39 1   
    40    21    40 1   
    41    22    41 1   
    42    23    24 ar  
    43    23    42 1   
    44    24    43 1   
    45    25    46 2   
    46    26    46 2   
    47    27    44 1   
    48    27    46 1   
    49    29    45 1   
@<TRIPOS>SUBSTRUCTURE
     1 A1A         1 TEMP              0 ****  ****    0 ROOT
