@<TRIPOS>MOLECULE
A1A
   28    29     1     0     0
SMALL
abcg2


@<TRIPOS>ATOM
      1 N1         -27.5140    -6.7160    -0.6520 n7         1 A1A      -0.847400
      2 C4         -25.2790    -6.2610    -4.5920 ca         1 A1A      -0.120600
      3 C5         -25.8870    -6.9490    -5.6380 ca         1 A1A      -0.108000
      4 C6         -26.1420    -5.3920    -3.7280 c          1 A1A       0.611700
      5 C7         -25.2570    -6.5000    -1.6830 c6         1 A1A       0.058500
      6 C8         -26.0920    -6.8850    -0.4450 c6         1 A1A       0.131800
      7 C10        -26.6830    -4.5400    -1.5280 c6         1 A1A       0.058500
      8 O          -26.9780    -4.6700    -4.2560 o          1 A1A      -0.588100
      9 C3         -23.8950    -6.3010    -4.4490 ca         1 A1A      -0.101000
     10 C2         -23.1260    -7.0410    -5.3360 ca         1 A1A      -0.094000
     11 C1         -23.7230    -7.7520    -6.3670 ca         1 A1A      -0.135000
     12 C          -25.0980    -7.6910    -6.4920 ca         1 A1A       0.164000
     13 F          -25.6900    -8.3640    -7.4910 f          1 A1A      -0.175000
     14 N          -25.9240    -5.4170    -2.3980 n          1 A1A      -0.405800
     15 C9         -27.8490    -5.3170    -0.8970 c6         1 A1A       0.131800
     16 H8         -27.8060    -7.2790    -1.4410 hn         1 A1A       0.413000
     17 H3         -26.9590    -6.9170    -5.7800 ha         1 A1A       0.147000
     18 H4         -25.1700    -7.3650    -2.3380 h1         1 A1A       0.059700
     19 H5         -24.2460    -6.2100    -1.3810 h1         1 A1A       0.059700
     20 H6         -25.8740    -7.9220    -0.1840 h1         1 A1A       0.059700
     21 H7         -25.7940    -6.2830     0.4180 h1         1 A1A       0.059700
     22 H11        -27.0390    -3.6750    -2.0810 h1         1 A1A       0.059700
     23 H12        -26.0050    -4.1690    -0.7560 h1         1 A1A       0.059700
     24 H2         -23.4090    -5.7470    -3.6560 ha         1 A1A       0.124000
     25 H1         -22.0500    -7.0630    -5.2260 ha         1 A1A       0.121000
     26 H          -23.1310    -8.3380    -7.0580 ha         1 A1A       0.134000
     27 H9         -28.7220    -5.2790    -1.5500 h1         1 A1A       0.059700
     28 H10        -28.1290    -4.8250     0.0400 h1         1 A1A       0.059700
@<TRIPOS>BOND
     1     1     6 1   
     2     1    15 1   
     3     1    16 1   
     4     2     3 ar  
     5     2     4 1   
     6     2     9 ar  
     7     3    12 ar  
     8     3    17 1   
     9     4     8 2   
    10     4    14 1   
    11     5     6 1   
    12     5    14 1   
    13     5    18 1   
    14     5    19 1   
    15     6    20 1   
    16     6    21 1   
    17     7    14 1   
    18     7    15 1   
    19     7    22 1   
    20     7    23 1   
    21     9    10 ar  
    22     9    24 1   
    23    10    11 ar  
    24    10    25 1   
    25    11    12 ar  
    26    11    26 1   
    27    12    13 1   
    28    15    27 1   
    29    15    28 1   
@<TRIPOS>SUBSTRUCTURE
     1 A1A         1 TEMP              0 ****  ****    0 ROOT
