@<TRIPOS>MOLECULE
A1A
   32    33     1     0     0
SMALL
No Charge or Current Charge


@<TRIPOS>ATOM
      1 N1          -0.2270    13.7960     0.1080 nb         1 A1A      -0.286000
      2 N3          -3.4830    16.0920     1.1550 na         1 A1A      -0.315400
      3 C4          -0.9470    14.5190    -0.7710 ca         1 A1A       0.424900
      4 C5          -0.6280    13.8490     1.4030 ca         1 A1A       0.180900
      5 C6          -2.3760    15.2700     1.0060 ca         1 A1A       0.146500
      6 C7          -3.8890    16.6450    -0.0810 cc         1 A1A      -0.176100
      7 C8          -2.9860    16.1300    -0.9940 cd         1 A1A      -0.211200
      8 C10          0.2500    12.1480    -2.6420 c          1 A1A       0.605100
      9 O            1.0080    11.3670    -2.0850 o          1 A1A      -0.593100
     10 N4          -0.8950    11.6860    -3.2040 nt         1 A1A      -0.605000
     11 C3           0.5140    13.6970    -2.7460 c3         1 A1A       0.161500
     12 C1           0.7250    14.1770    -4.2200 c3         1 A1A      -0.067700
     13 C2           1.1680    15.6620    -4.2950 c3         1 A1A      -0.090600
     14 C            1.7350    13.2910    -4.9940 c3         1 A1A      -0.090600
     15 N           -0.5800    14.5020    -2.1090 nu         1 A1A      -0.938100
     16 C9          -2.0390    15.2710    -0.3230 ca         1 A1A      -0.260800
     17 N2          -1.6730    14.5540     1.9030 nb         1 A1A      -0.227000
     18 H           -3.9350    16.2640     2.0480 hn         1 A1A       0.363000
     19 H10         -0.0490    13.2660     2.1170 h5         1 A1A       0.049100
     20 H11         -4.7360    17.3190    -0.1980 h4         1 A1A       0.217000
     21 H12         -3.0020    16.3500    -2.0600 ha         1 A1A       0.200000
     22 H14         -1.1140    10.7030    -3.1500 hn         1 A1A       0.311000
     23 H13         -1.5390    12.3370    -3.6260 hn         1 A1A       0.311000
     24 H8           1.4550    13.8680    -2.2050 h1         1 A1A       0.102700
     25 H4          -0.2360    14.0950    -4.7450 hc         1 A1A       0.041700
     26 H5           0.4190    16.3280    -3.8510 hc         1 A1A       0.041367
     27 H6           2.1170    15.8130    -3.7660 hc         1 A1A       0.041367
     28 H7           1.3060    15.9730    -5.3380 hc         1 A1A       0.041367
     29 H2           1.3770    12.2580    -5.0840 hc         1 A1A       0.041367
     30 H3           1.8850    13.6730    -6.0110 hc         1 A1A       0.041367
     31 H1           2.7090    13.2760    -4.4890 hc         1 A1A       0.041367
     32 H9          -1.1380    15.1040    -2.7110 hn         1 A1A       0.499000
@<TRIPOS>BOND
     1     1     3 ar  
     2     1     4 ar  
     3     2     5 1   
     4     2     6 1   
     5     2    18 1   
     6     3    15 1   
     7     3    16 ar  
     8     4    17 ar  
     9     4    19 1   
    10     5    16 ar  
    11     5    17 ar  
    12     6     7 2   
    13     6    20 1   
    14     7    16 1   
    15     7    21 1   
    16     8     9 2   
    17     8    10 1   
    18     8    11 1   
    19    10    22 1   
    20    10    23 1   
    21    11    12 1   
    22    11    15 1   
    23    11    24 1   
    24    12    13 1   
    25    12    14 1   
    26    12    25 1   
    27    13    26 1   
    28    13    27 1   
    29    13    28 1   
    30    14    29 1   
    31    14    30 1   
    32    14    31 1   
    33    15    32 1   
@<TRIPOS>SUBSTRUCTURE
     1 A1A         1 TEMP              0 ****  ****    0 ROOT
