@<TRIPOS>MOLECULE
A1A
   29    30     1     0     0
SMALL
No Charge or Current Charge


@<TRIPOS>ATOM
      1 N1          -5.5290     5.5620   -17.4390 n3         1 A1A      -0.742600
      2 C4          -7.2300     6.3510   -15.7400 c6         1 A1A      -0.000100
      3 C5          -8.2670     5.8000   -16.6860 cc         1 A1A      -0.195300
      4 C6         -10.2550     4.9080   -17.9260 cc         1 A1A      -0.237000
      5 C7          -9.0880     4.8460   -18.6460 cd         1 A1A      -0.120000
      6 C8          -7.9580     5.3470   -17.9420 cd         1 A1A      -0.111300
      7 C2          -3.0460     5.3620   -16.8390 c3         1 A1A       0.158800
      8 C1          -4.1180     5.6120   -17.9510 c3         1 A1A       0.185500
      9 C           -3.7840     6.9020   -18.7430 c3         1 A1A      -0.124100
     10 C9          -6.5530     5.4070   -18.5200 c6         1 A1A       0.246100
     11 S           -9.9790     5.6010   -16.3290 ss         1 A1A       0.184000
     12 C3          -5.9040     6.6580   -16.4890 c6         1 A1A       0.176800
     13 H11         -7.0300     5.6210   -14.9440 hc         1 A1A       0.054200
     14 H10         -7.5900     7.2610   -15.2410 hc         1 A1A       0.054200
     15 H12        -11.2530     4.6010   -18.2100 h4         1 A1A       0.149000
     16 H13         -9.0340     4.4530   -19.6570 ha         1 A1A       0.132000
     17 H6          -2.8450     4.1950   -15.1530 hn         1 A1A       0.400000
     18 H17         -4.3020     4.1110   -15.8550 hn         1 A1A       0.400000
     19 H5          -3.0560     6.2050   -16.1350 h1         1 A1A       0.023700
     20 H3          -3.9940     4.7820   -18.6620 h1         1 A1A       0.069700
     21 H           -4.4570     7.0360   -19.5970 hc         1 A1A       0.038033
     22 H2          -3.8520     7.7900   -18.1040 hc         1 A1A       0.038033
     23 H1          -2.7620     6.8500   -19.1370 hc         1 A1A       0.038033
     24 H15         -6.3560     4.4940   -19.1010 h1         1 A1A       0.041700
     25 H14         -6.5070     6.2510   -19.2230 h1         1 A1A       0.041700
     26 H9          -5.1190     6.8240   -15.7390 h1         1 A1A       0.033700
     27 H8          -6.0230     7.6030   -17.0400 h1         1 A1A       0.033700
     28 H4          -2.0420     5.3070   -17.2820 h1         1 A1A       0.023700
     29 N           -3.2970     4.1180   -16.0720 n8         1 A1A      -0.994200
@<TRIPOS>BOND
     1     1     8 1   
     2     1    10 1   
     3     1    12 1   
     4     2     3 1   
     5     2    12 1   
     6     2    13 1   
     7     2    14 1   
     8     3     6 2   
     9     3    11 1   
    10     4     5 2   
    11     4    11 1   
    12     4    15 1   
    13     5     6 1   
    14     5    16 1   
    15     6    10 1   
    16     7     8 1   
    17     7    19 1   
    18     7    28 1   
    19     7    29 1   
    20     8     9 1   
    21     8    20 1   
    22     9    21 1   
    23     9    22 1   
    24     9    23 1   
    25    10    24 1   
    26    10    25 1   
    27    12    26 1   
    28    12    27 1   
    29    17    29 1   
    30    18    29 1   
@<TRIPOS>SUBSTRUCTURE
     1 A1A         1 TEMP              0 ****  ****    0 ROOT
