@<TRIPOS>MOLECULE
A1A
   27    29     1     0     0
SMALL
No Charge or Current Charge


@<TRIPOS>ATOM
      1 N1          -6.5750    15.8300    -0.5080 nb         1 A1A      -0.662000
      2 N3          -3.2970    14.4260    -1.1750 nc         1 A1A      -0.501100
      3 C4          -3.4710    14.2440     0.1420 cd         1 A1A       0.362800
      4 C5          -4.7480    14.7580     0.5670 ca         1 A1A      -0.261900
      5 C6          -5.3470    14.7870     1.8300 ca         1 A1A      -0.023000
      6 C7          -8.8240    15.7320     5.0600 ca         1 A1A      -0.113600
      7 C8          -8.0810    14.8210     5.8600 ca         1 A1A      -0.139000
      8 C10        -10.0860    16.2140     7.0980 ca         1 A1A       0.343900
      9 C11         -9.8620    16.4460     5.7230 ca         1 A1A       0.097000
     10 N4          -9.3690    15.3400     7.8450 nb         1 A1A      -0.643000
     11 C9          -8.3830    14.6580     7.2240 ca         1 A1A       0.334900
     12 C           -8.5110    15.9050     3.5800 c          1 A1A       0.616700
     13 O           -9.3050    16.3960     2.7880 o          1 A1A      -0.545100
     14 C1          -6.6270    15.3720     1.9030 ca         1 A1A      -0.138000
     15 C3          -5.3560    15.2650    -0.5420 ca         1 A1A       0.367500
     16 C2          -7.1990    15.8820     0.7000 ca         1 A1A       0.394900
     17 N2          -4.4820    15.0650    -1.5920 na         1 A1A      -0.160100
     18 H3          -2.6900    13.7630     0.7180 h4         1 A1A       0.054800
     19 H4          -4.8470    14.3780     2.7070 ha         1 A1A       0.127000
     20 H5          -7.2790    14.2140     5.4480 ha         1 A1A       0.133000
     21 H7         -10.8700    16.7570     7.6230 h4         1 A1A       0.040100
     22 H6          -7.8190    13.9560     7.8360 h4         1 A1A       0.029100
     23 H1          -6.7110    15.0420     3.9310 hn         1 A1A       0.161000
     24 H2          -8.1800    16.3480     0.6820 h4         1 A1A       0.038100
     25 H           -4.6520    15.3370    -2.5560 hn         1 A1A       0.390000
     26 N           -7.2700    15.4200     3.1780 ns         1 A1A      -0.152000
     27 Cl         -10.8760    17.6600     4.9310 cl         1 A1A      -0.152000
@<TRIPOS>BOND
     1     1    15 ar  
     2     1    16 ar  
     3     2     3 2   
     4     2    17 1   
     5     3     4 1   
     6     3    18 1   
     7     4     5 ar  
     8     4    15 ar  
     9     5    14 ar  
    10     5    19 1   
    11     6     7 ar  
    12     6     9 ar  
    13     6    12 1   
    14     7    11 ar  
    15     7    20 1   
    16     8     9 ar  
    17     8    10 ar  
    18     8    21 1   
    19     9    27 1   
    20    10    11 ar  
    21    11    22 1   
    22    12    13 2   
    23    12    26 1   
    24    14    16 ar  
    25    14    26 1   
    26    15    17 1   
    27    16    24 1   
    28    17    25 1   
    29    23    26 1   
@<TRIPOS>SUBSTRUCTURE
     1 A1A         1 TEMP              0 ****  ****    0 ROOT
