@<TRIPOS>MOLECULE
A1A
   20    20     1     0     0
SMALL
No Charge or Current Charge


@<TRIPOS>ATOM
      1 N1         -10.0430     5.0280   -16.4890 ns         1 A1A      -0.347300
      2 C4          -7.6800     6.7900   -18.6890 c3         1 A1A       0.002800
      3 C5          -6.6300     5.9020   -19.3950 c3         1 A1A       0.167600
      4 O          -10.5080     5.6890   -18.6560 o          1 A1A      -0.534000
      5 C2          -9.7530     5.6000   -17.6990 c          1 A1A       0.550200
      6 N           -8.9490     5.2370   -15.6270 na         1 A1A      -0.546200
      7 C3          -8.3760     6.1070   -17.5310 cc         1 A1A      -0.253400
      8 C1          -7.8980     5.8870   -16.2520 cd         1 A1A       0.093800
      9 C           -6.5680     6.2030   -15.6250 c3         1 A1A      -0.050900
     10 O1          -7.2540     4.7680   -20.0110 oh         1 A1A      -0.644000
     11 H1         -11.0100     4.9430   -16.1780 hn         1 A1A       0.332500
     12 H5          -8.4080     7.1380   -19.4310 hc         1 A1A       0.057700
     13 H6          -7.1740     7.6920   -18.3230 hc         1 A1A       0.057700
     14 H7          -6.1100     6.5010   -20.1530 h1         1 A1A       0.010700
     15 H8          -5.8840     5.5720   -18.6600 h1         1 A1A       0.010700
     16 H           -8.9780     4.7680   -14.7140 hn         1 A1A       0.486000
     17 H2          -6.2450     7.2180   -15.8820 hc         1 A1A       0.056367
     18 H4          -6.6150     6.1340   -14.5320 hc         1 A1A       0.056367
     19 H3          -5.7980     5.5050   -15.9730 hc         1 A1A       0.056367
     20 H9          -6.5370     4.2400   -20.4260 ho         1 A1A       0.436000
@<TRIPOS>BOND
     1     1     5 1   
     2     1     6 1   
     3     1    11 1   
     4     2     3 1   
     5     2     7 1   
     6     2    12 1   
     7     2    13 1   
     8     3    10 1   
     9     3    14 1   
    10     3    15 1   
    11     4     5 2   
    12     5     7 1   
    13     6     8 1   
    14     6    16 1   
    15     7     8 2   
    16     8     9 1   
    17     9    17 1   
    18     9    18 1   
    19     9    19 1   
    20    10    20 1   
@<TRIPOS>SUBSTRUCTURE
     1 A1A         1 TEMP              0 ****  ****    0 ROOT
