@<TRIPOS>MOLECULE
A1A
   32    33     1     0     0
SMALL
abcg2


@<TRIPOS>ATOM
      1 N1           0.3180    14.3860    -0.0450 nb         1 A1A      -0.300000
      2 N3          -3.2230    15.8860     1.0650 na         1 A1A      -0.317400
      3 C4           0.3780    11.9190    -3.0420 c3         1 A1A       0.144600
      4 C5          -0.6910    14.4420    -0.9180 ca         1 A1A       0.451900
      5 C6           0.1230    14.8390     1.1930 ca         1 A1A       0.180900
      6 C7          -1.9760    15.4120     0.8330 ca         1 A1A       0.147500
      7 C8          -3.9740    15.7670    -0.0770 cc         1 A1A      -0.184100
      8 C10         -1.9280    14.9790    -0.4950 ca         1 A1A      -0.264800
      9 O           -0.1740    11.2830    -1.9140 oh         1 A1A      -0.646000
     10 C3           0.6780    13.3740    -2.6950 c3         1 A1A       0.234500
     11 C1           1.2270    14.1590    -3.8980 c3         1 A1A      -0.072700
     12 C2           1.5000    15.6120    -3.5220 c3         1 A1A      -0.087600
     13 C            2.4940    13.5200    -4.4610 c3         1 A1A      -0.087600
     14 N           -0.5140    14.0060    -2.1720 nu         1 A1A      -0.912100
     15 C9          -3.2150    15.2120    -1.0660 cd         1 A1A      -0.206200
     16 N2          -0.9690    15.3600     1.7130 nb         1 A1A      -0.237000
     17 H1          -3.5470    16.2650     1.9410 hn         1 A1A       0.360000
     18 H10          1.3050    11.4280    -3.3570 h1         1 A1A       0.020200
     19 H13          0.9810    14.7660     1.8540 h5         1 A1A       0.041100
     20 H14         -5.0010    16.0910    -0.0930 h4         1 A1A       0.214000
     21 H11         -0.3300    10.3610    -2.1390 ho         1 A1A       0.441000
     22 H            1.4250    13.3960    -1.8990 h1         1 A1A       0.104700
     23 H5           0.4600    14.1490    -4.6840 hc         1 A1A       0.040700
     24 H6           0.6030    16.1230    -3.1740 hc         1 A1A       0.037533
     25 H7           2.2520    15.6780    -2.7320 hc         1 A1A       0.037533
     26 H8           1.8780    16.1640    -4.3840 hc         1 A1A       0.037533
     27 H3           2.3140    12.5400    -4.9020 hc         1 A1A       0.037533
     28 H4           2.9200    14.1500    -5.2420 hc         1 A1A       0.037533
     29 H2           3.2520    13.4030    -3.6820 hc         1 A1A       0.037533
     30 H12         -1.3050    14.0670    -2.7950 hn         1 A1A       0.489000
     31 H15         -3.5450    15.0010    -2.0710 ha         1 A1A       0.199000
     32 H9          -0.3070    11.8900    -3.9020 h1         1 A1A       0.020200
@<TRIPOS>BOND
     1     1     4 ar  
     2     1     5 ar  
     3     2     6 1   
     4     2     7 1   
     5     2    17 1   
     6     3     9 1   
     7     3    10 1   
     8     3    18 1   
     9     3    32 1   
    10     4     8 ar  
    11     4    14 1   
    12     5    16 ar  
    13     5    19 1   
    14     6     8 ar  
    15     6    16 ar  
    16     7    15 2   
    17     7    20 1   
    18     8    15 1   
    19     9    21 1   
    20    10    11 1   
    21    10    14 1   
    22    10    22 1   
    23    11    12 1   
    24    11    13 1   
    25    11    23 1   
    26    12    24 1   
    27    12    25 1   
    28    12    26 1   
    29    13    27 1   
    30    13    28 1   
    31    13    29 1   
    32    14    30 1   
    33    15    31 1   
@<TRIPOS>SUBSTRUCTURE
     1 A1A         1 TEMP              0 ****  ****    0 ROOT
