@<TRIPOS>MOLECULE
A1A
   36    38     1     0     0
SMALL
No Charge or Current Charge


@<TRIPOS>ATOM
      1 N1          -3.8190    15.8990    -3.7690 nb         1 A1A      -0.192000
      2 N3          -4.2250    14.8730     0.2080 na         1 A1A      -0.332400
      3 C4           1.5120    12.6640    -5.0420 c3         1 A1A      -0.067400
      4 C5           1.4050    14.2010    -5.1250 c3         1 A1A      -0.086400
      5 C6           0.9850    14.8610    -3.7920 c3         1 A1A       0.096000
      6 C7          -1.3610    15.7440    -3.5740 c          1 A1A       0.503600
      7 C8          -2.7520    15.6310    -2.9730 ca         1 A1A       0.152500
      8 C10         -4.2700    15.2110    -1.1360 ca         1 A1A       0.113500
      9 C13         -2.9880    15.2920    -1.6220 ca         1 A1A      -0.166800
     10 O2          -1.0290    16.7680    -4.1700 o          1 A1A      -0.640100
     11 C12         -2.0820    15.0190    -0.5450 cc         1 A1A      -0.159200
     12 C11         -2.8600    14.7590     0.5710 cd         1 A1A      -0.188100
     13 N2          -5.3300    15.4590    -1.9270 nb         1 A1A      -0.211000
     14 C9          -5.0480    15.7940    -3.2080 ca         1 A1A       0.124900
     15 N           -0.4390    14.6690    -3.4000 n          1 A1A      -0.330800
     16 C1          -0.9280    13.2540    -3.1980 c3         1 A1A      -0.038300
     17 C           -0.1900    12.3960    -2.1080 c          1 A1A       0.724000
     18 O1          -0.4220    11.1950    -2.0580 o          1 A1A      -0.720000
     19 O            0.5590    12.9520    -1.3150 o          1 A1A      -0.720000
     20 C3           0.1820    11.8870    -5.1850 c3         1 A1A      -0.048400
     21 C2          -1.0850    12.5280    -4.5640 c3         1 A1A      -0.055400
     22 H           -5.0290    14.7410     0.8150 hn         1 A1A       0.349000
     23 H10          2.3930    14.5940    -5.3920 hc         1 A1A       0.028700
     24 H9           0.7230    14.4990    -5.9310 hc         1 A1A       0.028700
     25 H12          1.6330    14.4820    -2.9920 h1         1 A1A       0.064700
     26 H11          1.2060    15.9340    -3.8600 h1         1 A1A       0.064700
     27 H15         -0.9930    15.0160    -0.5730 ha         1 A1A       0.247000
     28 H14         -2.5470    14.5090     1.5840 h4         1 A1A       0.209000
     29 H13         -5.8970    16.0030    -3.8550 h5         1 A1A       0.035100
     30 H2          -1.9470    13.3090    -2.8080 h1         1 A1A       0.040700
     31 H6           0.3240    10.8860    -4.7590 hc         1 A1A       0.025200
     32 H5          -0.0150    11.7290    -6.2530 hc         1 A1A       0.025200
     33 H4          -1.8380    11.7390    -4.4540 hc         1 A1A       0.027200
     34 H3          -1.5110    13.2370    -5.2860 hc         1 A1A       0.027200
     35 H8           1.9900    12.3900    -4.0930 hc         1 A1A       0.034700
     36 H7           2.1920    12.3150    -5.8290 hc         1 A1A       0.034700
@<TRIPOS>BOND
     1     1     7 ar  
     2     1    14 ar  
     3     2     8 1   
     4     2    12 1   
     5     2    22 1   
     6     3     4 1   
     7     3    20 1   
     8     3    35 1   
     9     3    36 1   
    10     4     5 1   
    11     4    23 1   
    12     4    24 1   
    13     5    15 1   
    14     5    25 1   
    15     5    26 1   
    16     6     7 1   
    17     6    10 2   
    18     6    15 1   
    19     7     9 ar  
    20     8     9 ar  
    21     8    13 ar  
    22     9    11 1   
    23    11    12 2   
    24    11    27 1   
    25    12    28 1   
    26    13    14 ar  
    27    14    29 1   
    28    15    16 1   
    29    16    17 1   
    30    16    21 1   
    31    16    30 1   
    32    17    18 1   
    33    17    19 1   
    34    20    21 1   
    35    20    31 1   
    36    20    32 1   
    37    21    33 1   
    38    21    34 1   
@<TRIPOS>SUBSTRUCTURE
     1 A1A         1 TEMP              0 ****  ****    0 ROOT
