@<TRIPOS>MOLECULE
A1A
   20    20     1     0     0
SMALL
abcg2


@<TRIPOS>ATOM
      1 N1          -9.9630     4.9960   -16.4790 ns         1 A1A      -0.347300
      2 C4          -7.6080     6.8000   -18.6700 c3         1 A1A       0.002800
      3 C5          -6.6340     5.8900   -19.4020 c3         1 A1A       0.167600
      4 O          -10.4850     5.6020   -18.6410 o          1 A1A      -0.534000
      5 C2          -9.6940     5.5780   -17.7020 c          1 A1A       0.550200
      6 N           -8.9850     5.3460   -15.5760 na         1 A1A      -0.546200
      7 C3          -8.3610     6.1250   -17.5760 cc         1 A1A      -0.253400
      8 C1          -7.9730     5.9250   -16.2880 cd         1 A1A       0.093800
      9 C           -6.6780     6.2260   -15.6270 c3         1 A1A      -0.050900
     10 O1          -7.3410     4.8200   -19.9840 oh         1 A1A      -0.644000
     11 H1         -10.9060     4.9420   -16.1200 hn         1 A1A       0.332500
     12 H5          -8.3110     7.2310   -19.3890 hc         1 A1A       0.057700
     13 H6          -7.0320     7.6390   -18.2700 hc         1 A1A       0.057700
     14 H7          -6.1020     6.4840   -20.1570 h1         1 A1A       0.010700
     15 H8          -5.8770     5.5300   -18.6920 h1         1 A1A       0.010700
     16 H           -8.7630     4.6360   -14.8890 hn         1 A1A       0.486000
     17 H2          -6.3050     7.2000   -15.9400 hc         1 A1A       0.056367
     18 H4          -6.7740     6.2270   -14.5420 hc         1 A1A       0.056367
     19 H3          -5.9230     5.4870   -15.8980 hc         1 A1A       0.056367
     20 H9          -6.7030     4.2360   -20.4040 ho         1 A1A       0.436000
@<TRIPOS>BOND
     1     1     5 1   
     2     1     6 1   
     3     1    11 1   
     4     2     3 1   
     5     2     7 1   
     6     2    12 1   
     7     2    13 1   
     8     3    10 1   
     9     3    14 1   
    10     3    15 1   
    11     4     5 2   
    12     5     7 1   
    13     6     8 1   
    14     6    16 1   
    15     7     8 2   
    16     8     9 1   
    17     9    17 1   
    18     9    18 1   
    19     9    19 1   
    20    10    20 1   
@<TRIPOS>SUBSTRUCTURE
     1 A1A         1 TEMP              0 ****  ****    0 ROOT
