@<TRIPOS>MOLECULE
A1A
   38    40     1     0     0
SMALL
abcg2


@<TRIPOS>ATOM
      1 N1          -0.2380    12.5870     0.0620 nb         1 A1A      -0.224000
      2 N3          -2.6320    15.5230     1.3300 na         1 A1A      -0.317400
      3 C4          -0.4800    12.0270    -4.3100 c5         1 A1A      -0.190700
      4 C5          -0.1180    12.1390    -2.8430 c          1 A1A       0.618100
      5 C6          -0.9910    13.2650    -0.7900 ca         1 A1A       0.304900
      6 C7          -0.2930    12.9110     1.3530 ca         1 A1A       0.167900
      7 C8          -1.7820    14.5140     1.0500 ca         1 A1A       0.147500
      8 C10         -2.7400    15.2530    -0.8950 cc         1 A1A      -0.106400
      9 O1           0.8550    11.6000    -2.3670 o          1 A1A      -0.510100
     10 C3          -0.0510    10.6850    -4.9030 c5         1 A1A      -0.096400
     11 C2           1.3870    10.9370    -5.3760 c5         1 A1A       0.157600
     12 O            1.5890    12.3410    -5.3490 os         1 A1A      -0.446000
     13 C1           0.3510    12.9940    -5.1790 c5         1 A1A       0.180300
     14 C            0.5760    14.3900    -4.6420 c3         1 A1A      -0.095100
     15 N           -0.9900    12.9300    -2.1330 ns         1 A1A      -0.330900
     16 C9          -1.8190    14.3010    -0.3400 ca         1 A1A      -0.239800
     17 C11         -3.0990    15.4300    -2.3340 c3         1 A1A      -0.022900
     18 C12         -3.2160    15.9760     0.1660 cd         1 A1A      -0.057300
     19 N2          -1.0330    13.8440     1.9190 nb         1 A1A      -0.214000
     20 H2          -2.8070    15.8940     2.2510 hn         1 A1A       0.363000
     21 H1          -1.5460    12.2130    -4.4580 hc         1 A1A       0.066700
     22 H11          0.3440    12.3310     2.0120 h5         1 A1A       0.053100
     23 H16         -5.0660    16.8160     0.8280 hc         1 A1A       0.051700
     24 H17         -3.7670    17.9870     0.6490 hc         1 A1A       0.051700
     25 H15         -4.5660    17.3340    -0.7770 hc         1 A1A       0.051700
     26 H8          -0.7010    10.4490    -5.7460 hc         1 A1A       0.060200
     27 H9          -0.1200     9.8580    -4.1980 hc         1 A1A       0.060200
     28 H6           1.5430    10.5460    -6.3860 h1         1 A1A       0.052700
     29 H7           2.1230    10.4680    -4.7200 h1         1 A1A       0.052700
     30 H           -0.1770    13.0730    -6.1420 h1         1 A1A       0.033700
     31 H3          -0.3780    14.8890    -4.4720 hc         1 A1A       0.048700
     32 H5           1.1330    14.3830    -3.7040 hc         1 A1A       0.048700
     33 H4           1.1370    14.9890    -5.3600 hc         1 A1A       0.048700
     34 H10         -1.7240    13.3560    -2.6770 hn         1 A1A       0.155000
     35 H13         -3.6100    14.5540    -2.7420 hc         1 A1A       0.038367
     36 H14         -3.7680    16.2760    -2.4770 hc         1 A1A       0.038367
     37 H12         -2.2180    15.6160    -2.9520 hc         1 A1A       0.038367
     38 C13         -4.2030    17.0850     0.2170 c3         1 A1A      -0.039900
@<TRIPOS>BOND
     1     1     5 ar  
     2     1     6 ar  
     3     2     7 1   
     4     2    18 1   
     5     2    20 1   
     6     3     4 1   
     7     3    10 1   
     8     3    13 1   
     9     3    21 1   
    10     4     9 2   
    11     4    15 1   
    12     5    15 1   
    13     5    16 ar  
    14     6    19 ar  
    15     6    22 1   
    16     7    16 ar  
    17     7    19 ar  
    18     8    16 1   
    19     8    17 1   
    20     8    18 2   
    21    10    11 1   
    22    10    26 1   
    23    10    27 1   
    24    11    12 1   
    25    11    28 1   
    26    11    29 1   
    27    12    13 1   
    28    13    14 1   
    29    13    30 1   
    30    14    31 1   
    31    14    32 1   
    32    14    33 1   
    33    15    34 1   
    34    17    35 1   
    35    17    36 1   
    36    17    37 1   
    37    18    38 1   
    38    23    38 1   
    39    24    38 1   
    40    25    38 1   
@<TRIPOS>SUBSTRUCTURE
     1 A1A         1 TEMP              0 ****  ****    0 ROOT
