@<TRIPOS>MOLECULE
A1A
   13    13     1     0     0
SMALL
abcg2


@<TRIPOS>ATOM
      1 N1          -8.5220     5.5430   -17.2950 nc         1 A1A      -0.666000
      2 C4          -7.2370     5.7740   -17.2750 cd         1 A1A       0.388400
      3 C          -11.2570     4.8680   -18.3070 c2         1 A1A      -0.293000
      4 C1         -10.1590     4.9040   -19.0620 ce         1 A1A      -0.258800
      5 C2          -8.8230     5.2320   -18.5970 cc         1 A1A       0.288800
      6 N           -6.6860     5.6290   -18.4980 na         1 A1A      -0.301500
      7 C3          -7.6810     5.2820   -19.3580 cd         1 A1A      -0.221000
      8 H5          -6.6540     6.0480   -16.4090 h5         1 A1A       0.054100
      9 H1         -11.2330     5.0880   -17.2480 ha         1 A1A       0.168500
     10 H          -12.2170     4.6130   -18.7340 ha         1 A1A       0.168500
     11 H2         -10.2370     4.6760   -20.1200 ha         1 A1A       0.163000
     12 H4          -5.7130     5.7540   -18.7310 hn         1 A1A       0.352000
     13 H3          -7.5090     5.1050   -20.4060 h4         1 A1A       0.157000
@<TRIPOS>BOND
     1     1     2 2   
     2     1     5 1   
     3     2     6 1   
     4     2     8 1   
     5     3     4 2   
     6     3     9 1   
     7     3    10 1   
     8     4     5 1   
     9     4    11 1   
    10     5     7 2   
    11     6     7 1   
    12     6    12 1   
    13     7    13 1   
@<TRIPOS>SUBSTRUCTURE
     1 A1A         1 TEMP              0 ****  ****    0 ROOT
