@<TRIPOS>MOLECULE
A1A
   25    26     1     0     0
SMALL
abcg2


@<TRIPOS>ATOM
      1 N1          -8.3290     6.3260   -17.7060 n2         1 A1A      -0.605900
      2 C4          -6.2950     5.9580   -16.4110 c6         1 A1A      -0.069400
      3 C5          -4.7750     6.0510   -16.4420 c6         1 A1A      -0.075400
      4 C6          -4.2550     5.6210   -17.8080 c6         1 A1A      -0.071400
      5 C7          -4.7890     6.5500   -18.8880 c6         1 A1A      -0.060400
      6 C8          -6.3010     6.6950   -18.8750 c5         1 A1A       0.170500
      7 N          -11.5810     5.1010   -17.9050 n1         1 A1A      -0.440000
      8 C          -10.6090     4.9760   -18.5060 c1         1 A1A       0.312900
      9 C2          -8.2590     5.6040   -18.7530 c2         1 A1A       0.559200
     10 N2          -7.0420     5.5390   -19.3780 nu         1 A1A      -0.892400
     11 C3          -6.9640     6.8210   -17.4890 c5         1 A1A       0.107500
     12 H4          -6.6860     6.2470   -15.4330 hc         1 A1A       0.052700
     13 H3          -6.5800     4.9120   -16.5590 hc         1 A1A       0.052700
     14 H5          -4.4510     7.0760   -16.2330 hc         1 A1A       0.041200
     15 H6          -4.3520     5.4240   -15.6540 hc         1 A1A       0.041200
     16 H8          -3.1630     5.6300   -17.8260 hc         1 A1A       0.045200
     17 H7          -4.5630     4.5900   -18.0060 hc         1 A1A       0.045200
     18 H10         -4.3650     7.5470   -18.7350 hc         1 A1A       0.044200
     19 H9          -4.4630     6.2330   -19.8820 hc         1 A1A       0.044200
     20 H11         -6.5700     7.5770   -19.4740 h1         1 A1A       0.034700
     21 H1          -9.1380     3.7370   -19.3030 hc         1 A1A       0.083700
     22 H           -9.6110     5.0750   -20.3290 hc         1 A1A       0.083700
     23 H12         -7.0170     5.3510   -20.3710 hn         1 A1A       0.464000
     24 H2          -6.9760     7.8620   -17.1600 h1         1 A1A       0.076700
     25 C1          -9.4010     4.7980   -19.2920 c3         1 A1A      -0.043600
@<TRIPOS>BOND
     1     1     9 2   
     2     1    11 1   
     3     2     3 1   
     4     2    11 1   
     5     2    12 1   
     6     2    13 1   
     7     3     4 1   
     8     3    14 1   
     9     3    15 1   
    10     4     5 1   
    11     4    16 1   
    12     4    17 1   
    13     5     6 1   
    14     5    18 1   
    15     5    19 1   
    16     6    10 1   
    17     6    11 1   
    18     6    20 1   
    19     7     8 3   
    20     8    25 1   
    21     9    10 1   
    22     9    25 1   
    23    10    23 1   
    24    11    24 1   
    25    21    25 1   
    26    22    25 1   
@<TRIPOS>SUBSTRUCTURE
     1 A1A         1 TEMP              0 ****  ****    0 ROOT
