@<TRIPOS>MOLECULE
A1A
   25    24     1     0     0
SMALL
No Charge or Current Charge


@<TRIPOS>ATOM
      1 CEK        -12.7980     3.5960   -18.9370 c3         1 A1A       0.162600
      2 CEL        -13.9990     2.6390   -18.7670 c3         1 A1A      -0.073400
      3 CEM        -13.7260     1.1900   -19.2300 c3         1 A1A      -0.040200
      4 CEN        -14.9590     0.3120   -19.1020 c2         1 A1A      -0.220200
      5 CEO        -15.1360    -0.7320   -18.2720 c2         1 A1A      -0.212200
      6 CEP        -14.1370    -1.2900   -17.2760 c3         1 A1A      -0.045200
      7 CEQ        -14.1770    -0.5410   -15.9270 c3         1 A1A      -0.072400
      8 CER        -13.1730    -1.0930   -14.8970 c3         1 A1A      -0.089100
      9 O1         -11.7230     3.2130   -18.0710 oh         1 A1A      -0.662000
     10 H1         -12.4690     3.5840   -19.9850 h1         1 A1A       0.015700
     11 H2         -13.1230     4.6170   -18.7010 h1         1 A1A       0.015700
     12 H3         -14.3120     2.6340   -17.7160 hc         1 A1A       0.046700
     13 H4         -14.8410     3.0410   -19.3440 hc         1 A1A       0.046700
     14 H5         -13.3930     1.2030   -20.2750 hc         1 A1A       0.050200
     15 H6         -12.8890     0.7860   -18.6500 hc         1 A1A       0.050200
     16 H7         -15.7700     0.5990   -19.7760 ha         1 A1A       0.161000
     17 H8         -16.0850    -1.2720   -18.2870 ha         1 A1A       0.164000
     18 H9         -14.3440    -2.3540   -17.1040 hc         1 A1A       0.043200
     19 H10        -13.1200    -1.2460   -17.6820 hc         1 A1A       0.043200
     20 H11        -13.9640     0.5220   -16.0970 hc         1 A1A       0.039700
     21 H12        -15.1890    -0.6010   -15.5100 hc         1 A1A       0.039700
     22 H13        -13.2400    -0.5300   -13.9590 hc         1 A1A       0.031367
     23 H14        -13.3810    -2.1480   -14.6790 hc         1 A1A       0.031367
     24 H15        -12.1460    -1.0120   -15.2730 hc         1 A1A       0.031367
     25 H16        -10.9960     3.8580   -18.2170 ho         1 A1A       0.440000
@<TRIPOS>BOND
     1     1     2 1   
     2     1     9 1   
     3     1    10 1   
     4     1    11 1   
     5     2     3 1   
     6     2    12 1   
     7     2    13 1   
     8     3     4 1   
     9     3    14 1   
    10     3    15 1   
    11     4     5 2   
    12     4    16 1   
    13     5     6 1   
    14     5    17 1   
    15     6     7 1   
    16     6    18 1   
    17     6    19 1   
    18     7     8 1   
    19     7    20 1   
    20     7    21 1   
    21     8    22 1   
    22     8    23 1   
    23     8    24 1   
    24     9    25 1   
@<TRIPOS>SUBSTRUCTURE
     1 A1A         1 TEMP              0 ****  ****    0 ROOT
