@<TRIPOS>MOLECULE
A1A
   13    13     1     0     0
SMALL
No Charge or Current Charge


@<TRIPOS>ATOM
      1 N1          -8.5440     5.5360   -17.3290 nc         1 A1A      -0.666000
      2 C4          -7.2420     5.7790   -17.2540 cd         1 A1A       0.388400
      3 C          -11.2690     4.8670   -18.2900 c2         1 A1A      -0.293000
      4 C1         -10.1600     4.9060   -19.0660 ce         1 A1A      -0.258800
      5 C2          -8.8040     5.2300   -18.6330 cc         1 A1A       0.288800
      6 N           -6.6620     5.6310   -18.5000 na         1 A1A      -0.301500
      7 C3          -7.6660     5.2780   -19.3890 cd         1 A1A      -0.221000
      8 H5          -6.6740     6.0540   -16.3730 h5         1 A1A       0.054100
      9 H1         -11.2360     5.0870   -17.2220 ha         1 A1A       0.168500
     10 H          -12.2470     4.6130   -18.7030 ha         1 A1A       0.168500
     11 H2         -10.2360     4.6800   -20.1310 ha         1 A1A       0.163000
     12 H4          -5.6770     5.7620   -18.7040 hn         1 A1A       0.352000
     13 H3          -7.5090     5.0940   -20.4460 h4         1 A1A       0.157000
@<TRIPOS>BOND
     1     1     2 2   
     2     1     5 1   
     3     2     6 1   
     4     2     8 1   
     5     3     4 2   
     6     3     9 1   
     7     3    10 1   
     8     4     5 1   
     9     4    11 1   
    10     5     7 2   
    11     6     7 1   
    12     6    12 1   
    13     7    13 1   
@<TRIPOS>SUBSTRUCTURE
     1 A1A         1 TEMP              0 ****  ****    0 ROOT
