@<TRIPOS>MOLECULE
A1A
   19    19     1     0     0
SMALL
abcg2


@<TRIPOS>ATOM
      1 N1         -10.0140     5.0000   -16.8350 nc         1 A1A      -0.662000
      2 C4          -9.9740     4.7640   -18.1820 cc         1 A1A       0.236900
      3 C5          -8.6850     4.7980   -18.6290 cd         1 A1A      -0.232000
      4 O           -7.8820     2.8110   -14.7480 o          1 A1A      -0.575100
      5 C1          -6.9330     3.5640   -14.5920 c          1 A1A       0.592100
      6 C           -5.5560     3.0670   -14.2350 c3         1 A1A      -0.181100
      7 N           -7.0510     4.8970   -14.7450 ns         1 A1A      -0.529900
      8 C3          -8.7700     5.1790   -16.4700 cd         1 A1A       0.385800
      9 N2          -7.9330     5.0680   -17.5210 na         1 A1A      -0.293500
     10 H7         -10.8690     4.5760   -18.7550 h4         1 A1A       0.038100
     11 H8          -8.2500     4.6510   -19.6020 h4         1 A1A       0.155000
     12 H1          -5.1550     2.4910   -15.0700 hc         1 A1A       0.060367
     13 H2          -4.8520     3.8630   -14.0000 hc         1 A1A       0.060367
     14 H3          -5.6210     2.3950   -13.3800 hc         1 A1A       0.060367
     15 H4          -6.2550     5.4900   -14.5830 hn         1 A1A       0.314500
     16 H6          -9.0950     5.2310   -14.3880 h1         1 A1A       0.072200
     17 H5          -8.1720     6.5940   -14.9910 h1         1 A1A       0.072200
     18 H           -6.9280     5.1560   -17.4950 hn         1 A1A       0.347000
     19 C2          -8.3080     5.5160   -15.0880 c3         1 A1A       0.079700
@<TRIPOS>BOND
     1     1     2 1   
     2     1     8 2   
     3     2     3 2   
     4     2    10 1   
     5     3     9 1   
     6     3    11 1   
     7     4     5 2   
     8     5     6 1   
     9     5     7 1   
    10     6    12 1   
    11     6    13 1   
    12     6    14 1   
    13     7    15 1   
    14     7    19 1   
    15     8     9 1   
    16     8    19 1   
    17     9    18 1   
    18    16    19 1   
    19    17    19 1   
@<TRIPOS>SUBSTRUCTURE
     1 A1A         1 TEMP              0 ****  ****    0 ROOT
