@<TRIPOS>MOLECULE
A1A
   29    30     1     0     0
SMALL
abcg2


@<TRIPOS>ATOM
      1 N1          -8.8360     6.5690   -18.2580 nb         1 A1A      -0.685000
      2 C4         -10.4720     4.8380   -18.0580 ca         1 A1A      -0.171000
      3 C5          -9.4790     3.9360   -17.7080 ca         1 A1A      -0.075000
      4 C6          -8.1660     4.3750   -17.6410 ca         1 A1A      -0.143000
      5 C7          -6.3800     7.6060   -17.1440 c5         1 A1A      -0.070900
      6 C8          -4.9050     7.7510   -16.7280 c5         1 A1A      -0.080900
      7 C10         -5.4760     5.4050   -17.0910 c5         1 A1A      -0.070900
      8 C           -6.0030     6.4660   -19.3430 c3         1 A1A       0.158800
      9 C1          -6.4710     6.2600   -17.8900 c5         1 A1A      -0.095300
     10 C9          -4.2930     6.3370   -16.8230 c5         1 A1A      -0.080900
     11 C2          -7.8760     5.7090   -17.9180 ca         1 A1A       0.384300
     12 C3         -10.0900     6.1440   -18.3230 ca         1 A1A       0.340900
     13 H5         -11.5100     4.5430   -18.1240 ha         1 A1A       0.120000
     14 H6          -9.7200     2.9020   -17.4940 ha         1 A1A       0.115000
     15 H7          -7.3790     3.6830   -17.3740 ha         1 A1A       0.122000
     16 H8          -6.7300     8.4410   -17.7510 hc         1 A1A       0.050200
     17 H9          -7.0200     7.5710   -16.2590 hc         1 A1A       0.050200
     18 H10         -4.3780     8.4450   -17.3840 hc         1 A1A       0.039950
     19 H11         -4.8250     8.1580   -15.7200 hc         1 A1A       0.039950
     20 H14         -5.1820     4.4800   -17.5900 hc         1 A1A       0.050200
     21 H15         -5.9390     5.1170   -16.1430 hc         1 A1A       0.050200
     22 H16         -5.8130     5.4200   -21.0670 hn         1 A1A       0.391000
     23 H1          -5.0800     4.7180   -19.8170 hn         1 A1A       0.391000
     24 H3          -5.0620     7.0340   -19.3380 h1         1 A1A       0.037200
     25 H2          -6.7370     7.1070   -19.8370 h1         1 A1A       0.037200
     26 H12         -3.5730     6.2830   -17.6420 hc         1 A1A       0.039950
     27 H13         -3.7550     6.0530   -15.9180 hc         1 A1A       0.039950
     28 H4         -10.8350     6.8820   -18.6030 h4         1 A1A       0.014100
     29 N           -5.9190     5.2180   -20.0810 n8         1 A1A      -0.998200
@<TRIPOS>BOND
     1     1    11 ar  
     2     1    12 ar  
     3     2     3 ar  
     4     2    12 ar  
     5     2    13 1   
     6     3     4 ar  
     7     3    14 1   
     8     4    11 ar  
     9     4    15 1   
    10     5     6 1   
    11     5     9 1   
    12     5    16 1   
    13     5    17 1   
    14     6    10 1   
    15     6    18 1   
    16     6    19 1   
    17     7     9 1   
    18     7    10 1   
    19     7    20 1   
    20     7    21 1   
    21     8     9 1   
    22     8    24 1   
    23     8    25 1   
    24     8    29 1   
    25     9    11 1   
    26    10    26 1   
    27    10    27 1   
    28    12    28 1   
    29    22    29 1   
    30    23    29 1   
@<TRIPOS>SUBSTRUCTURE
     1 A1A         1 TEMP              0 ****  ****    0 ROOT
