@<TRIPOS>MOLECULE
A1A
   23    23     1     0     0
SMALL
No Charge or Current Charge


@<TRIPOS>ATOM
      1 CDN         -7.3110    14.1580   -28.1930 c3         1 A1A       0.151900
      2 CDR         -7.9660    13.6520   -25.8530 ca         1 A1A       0.210100
      3 CDU         -7.3380    14.8320   -25.3900 ca         1 A1A      -0.233000
      4 CDX         -7.3470    15.1670   -24.0290 ca         1 A1A       0.025000
      5 CDZ         -7.9880    14.3240   -23.1130 ca         1 A1A      -0.197500
      6 CEB         -8.6140    13.1470   -23.5560 ca         1 A1A       0.048000
      7 CED         -8.6160    12.7920   -24.9250 ca         1 A1A      -0.206600
      8 CEE         -9.3180    11.5060   -25.3080 c          1 A1A       0.623700
      9 NDO         -9.3530    11.1200   -26.5970 nt         1 A1A      -0.597000
     10 ODP         -7.9500    13.3340   -27.1990 os         1 A1A      -0.358100
     11 ODT         -9.6810    14.9310   -21.3350 oh         1 A1A      -0.618800
     12 ODW         -7.6140    13.4850   -20.5980 o          1 A1A      -0.531000
     13 ODY         -9.8630    10.7930   -24.4810 o          1 A1A      -0.611100
     14 SDQ         -7.9950    14.7550   -21.3360 sx         1 A1A       0.614300
     15 H1          -7.4240    13.7100   -29.1870 h1         1 A1A       0.048700
     16 H2          -7.7600    15.1590   -28.2190 h1         1 A1A       0.048700
     17 H3          -6.2370    14.2570   -27.9870 h1         1 A1A       0.048700
     18 H4          -6.8330    15.5090   -26.0720 ha         1 A1A       0.121000
     19 H5          -6.8590    16.0780   -23.6890 ha         1 A1A       0.119000
     20 H6          -9.1040    12.5100   -22.8200 ha         1 A1A       0.170000
     21 H7          -9.8210    10.2630   -26.8480 hn         1 A1A       0.321000
     22 H8          -8.9070    11.6970   -27.2950 hn         1 A1A       0.321000
     23 H9          -9.8050    15.8270   -20.9620 ho         1 A1A       0.483000
@<TRIPOS>BOND
     1     1    10 1   
     2     1    15 1   
     3     1    16 1   
     4     1    17 1   
     5     2     3 ar  
     6     2     7 ar  
     7     2    10 1   
     8     3     4 ar  
     9     3    18 1   
    10     4     5 ar  
    11     4    19 1   
    12     5     6 ar  
    13     5    14 1   
    14     6     7 ar  
    15     6    20 1   
    16     7     8 1   
    17     8     9 1   
    18     8    13 2   
    19     9    21 1   
    20     9    22 1   
    21    11    14 1   
    22    11    23 1   
    23    12    14 2   
@<TRIPOS>SUBSTRUCTURE
     1 A1A         1 TEMP              0 ****  ****    0 ROOT
