@<TRIPOS>MOLECULE
A1A
   24    24     1     0     0
SMALL
abcg2


@<TRIPOS>ATOM
      1 N1          -3.3140     5.4080   -17.3670 n8         1 A1A      -0.997200
      2 C4          -5.6950     5.8490   -17.8040 ca         1 A1A      -0.010300
      3 C5          -4.5450     5.9640   -16.8370 c3         1 A1A       0.192100
      4 C6          -5.5040     5.9540   -19.1850 ca         1 A1A      -0.201000
      5 C7          -6.6170     5.8740   -19.9950 ca         1 A1A       0.376900
      6 C3          -6.9800     5.6700   -17.3290 ca         1 A1A      -0.239000
      7 N2          -7.8610     5.7090   -19.5570 nb         1 A1A      -0.750000
      8 C2          -8.0580     5.6130   -18.2390 ca         1 A1A       0.616900
      9 N           -9.3420     5.4570   -17.8190 nh         1 A1A      -0.796300
     10 C1         -10.3860     5.2580   -18.8010 c3         1 A1A       0.227600
     11 C           -9.6220     5.2340   -16.4210 c3         1 A1A       0.227600
     12 H9          -2.5500     5.6350   -16.7460 hn         1 A1A       0.398000
     13 H13         -3.3760     4.3980   -17.3820 hn         1 A1A       0.398000
     14 H7          -4.3770     7.0290   -16.6470 h1         1 A1A       0.036700
     15 H8          -4.8530     5.5340   -15.8740 h1         1 A1A       0.036700
     16 H11         -4.5180     6.0810   -19.6090 ha         1 A1A       0.139000
     17 H12         -6.5060     5.9450   -21.0730 h4         1 A1A       0.012100
     18 H6          -7.1410     5.5660   -16.2650 ha         1 A1A       0.115000
     19 H3         -10.4760     6.1100   -19.4750 h1         1 A1A       0.036533
     20 H4         -10.2220     4.3680   -19.4140 h1         1 A1A       0.036533
     21 H5         -11.3350     5.1410   -18.2830 h1         1 A1A       0.036533
     22 H2          -9.2540     6.0560   -15.8030 h1         1 A1A       0.036533
     23 H1         -10.6970     5.1770   -16.2760 h1         1 A1A       0.036533
     24 H           -9.1820     4.3060   -16.0430 h1         1 A1A       0.036533
@<TRIPOS>BOND
     1     1     3 1   
     2     1    12 1   
     3     1    13 1   
     4     2     3 1   
     5     2     4 ar  
     6     2     6 ar  
     7     3    14 1   
     8     3    15 1   
     9     4     5 ar  
    10     4    16 1   
    11     5     7 ar  
    12     5    17 1   
    13     6     8 ar  
    14     6    18 1   
    15     7     8 ar  
    16     8     9 1   
    17     9    10 1   
    18     9    11 1   
    19    10    19 1   
    20    10    20 1   
    21    10    21 1   
    22    11    22 1   
    23    11    23 1   
    24    11    24 1   
@<TRIPOS>SUBSTRUCTURE
     1 A1A         1 TEMP              0 ****  ****    0 ROOT
