@<TRIPOS>MOLECULE
A1A
   32    35     1     0     0
SMALL
No Charge or Current Charge


@<TRIPOS>ATOM
      1 N1          -1.2160    15.2970    -2.3970 nh         1 A1A      -0.776300
      2 N3          -1.1400    11.2060    -5.0290 nc         1 A1A      -0.695000
      3 C4          -2.0440    14.7070    -4.5570 c5         1 A1A       0.082300
      4 C5          -0.7760    12.4690    -4.9020 cd         1 A1A       0.406400
      5 C6          -2.5000    11.2610    -4.9290 cc         1 A1A       0.516900
      6 C7          -2.5000    15.1550    -3.1360 c5         1 A1A       0.224800
      7 C8          -2.1370    15.3780    -0.0690 ca         1 A1A      -0.251800
      8 C10         -4.1190    15.8480     1.0560 cc         1 A1A      -0.182100
      9 C9          -3.5230    15.7840    -0.1890 cd         1 A1A      -0.207200
     10 N5          -3.0890    15.4830     1.9480 na         1 A1A      -0.317400
     11 C11         -1.9060    15.2130     1.2760 ca         1 A1A       0.146500
     12 N6          -0.6970    14.8610     1.7450 nb         1 A1A      -0.235000
     13 C            0.2650    14.6860     0.8110 ca         1 A1A       0.181900
     14 C1          -1.0910    15.1680    -0.9940 ca         1 A1A       0.446900
     15 N            0.1310    14.8240    -0.5290 nb         1 A1A      -0.303000
     16 C3          -0.7380    15.5460    -4.6950 c5         1 A1A      -0.107400
     17 C2          -0.0500    15.3470    -3.3180 c5         1 A1A       0.240800
     18 N2          -1.9160    13.2460    -4.7250 na         1 A1A      -0.066700
     19 N4          -3.0360    12.4550    -4.7520 nd         1 A1A      -0.528800
     20 H6          -2.7780    15.0530    -5.2960 h1         1 A1A       0.074700
     21 H7           0.2290    12.8730    -4.9340 h5         1 A1A       0.061100
     22 H8          -3.0730    10.3430    -5.0010 h5         1 A1A       0.066100
     23 H9          -3.0300    16.1160    -3.1860 h1         1 A1A       0.064200
     24 H10         -3.1710    14.4130    -2.6800 h1         1 A1A       0.064200
     25 H11         -4.0410    16.0320    -1.1120 ha         1 A1A       0.198000
     26 H           -3.1840    15.4280     2.9570 hn         1 A1A       0.361000
     27 H1           1.2520    14.4050     1.1750 h5         1 A1A       0.043100
     28 H4          -0.9750    16.6050    -4.8520 hc         1 A1A       0.066700
     29 H5          -0.1070    15.2360    -5.5350 hc         1 A1A       0.066700
     30 H2           0.6330    16.1770    -3.0870 h1         1 A1A       0.071200
     31 H3           0.5260    14.4120    -3.2830 h1         1 A1A       0.071200
     32 H12         -5.1280    16.1140     1.3660 h4         1 A1A       0.215000
@<TRIPOS>BOND
     1     1     6 1   
     2     1    14 1   
     3     1    17 1   
     4     2     4 2   
     5     2     5 1   
     6     3     6 1   
     7     3    16 1   
     8     3    18 1   
     9     3    20 1   
    10     4    18 1   
    11     4    21 1   
    12     5    19 2   
    13     5    22 1   
    14     6    23 1   
    15     6    24 1   
    16     7     9 1   
    17     7    11 ar  
    18     7    14 ar  
    19     8     9 2   
    20     8    10 1   
    21     8    32 1   
    22     9    25 1   
    23    10    11 1   
    24    10    26 1   
    25    11    12 ar  
    26    12    13 ar  
    27    13    15 ar  
    28    13    27 1   
    29    14    15 ar  
    30    16    17 1   
    31    16    28 1   
    32    16    29 1   
    33    17    30 1   
    34    17    31 1   
    35    18    19 1   
@<TRIPOS>SUBSTRUCTURE
     1 A1A         1 TEMP              0 ****  ****    0 ROOT
