@<TRIPOS>MOLECULE
A1A
   32    33     1     0     0
SMALL
No Charge or Current Charge


@<TRIPOS>ATOM
      1 N1         -12.0190    -9.3900    -6.8550 nu         1 A1A      -0.906100
      2 C4         -12.6050   -11.6310    -7.5280 c5         1 A1A      -0.092400
      3 C5         -12.0210   -12.5890    -8.6180 c5         1 A1A      -0.075400
      4 C6         -10.5580   -12.0940    -8.8450 c5         1 A1A      -0.072400
      5 C7         -10.6210   -10.5650    -8.5120 c5         1 A1A      -0.065000
      6 C8         -11.3380    -9.7610    -9.6520 c3         1 A1A      -0.089100
      7 C9          -9.2090    -9.9240    -8.3340 c3         1 A1A       0.176600
      8 C3         -11.4030   -10.7090    -7.1580 c5         1 A1A       0.233500
      9 C2         -12.2580    -8.9320    -5.5950 cc         1 A1A       0.722300
     10 S          -13.0140    -7.4070    -5.2350 ss         1 A1A      -0.060300
     11 N          -12.8850    -7.7200    -3.6020 nc         1 A1A      -0.526100
     12 N2         -11.9290    -9.6400    -4.5480 nd         1 A1A      -0.773000
     13 C1         -12.3060    -8.9060    -3.4370 cd         1 A1A       0.628300
     14 C          -12.0700    -9.4320    -2.0530 c3         1 A1A      -0.115400
     15 H3         -12.3600    -8.7810    -7.5900 hn         1 A1A       0.497000
     16 H6         -12.9690   -12.1770    -6.6510 hc         1 A1A       0.046700
     17 H5         -13.4630   -11.0790    -7.9310 hc         1 A1A       0.046700
     18 H8         -12.0430   -13.6360    -8.2970 hc         1 A1A       0.044200
     19 H7         -12.6080   -12.5320    -9.5420 hc         1 A1A       0.044200
     20 H10         -9.8720   -12.6310    -8.1790 hc         1 A1A       0.056200
     21 H9         -10.2120   -12.2880    -9.8670 hc         1 A1A       0.056200
     22 H13        -11.3590    -8.6850    -9.4400 hc         1 A1A       0.036367
     23 H12        -10.8100    -9.8850   -10.6050 hc         1 A1A       0.036367
     24 H11        -12.3730   -10.0820    -9.8180 hc         1 A1A       0.036367
     25 H16         -7.5580   -10.1430    -7.3000 ho         1 A1A       0.446000
     26 H14         -8.6890    -9.9380    -9.3010 h1         1 A1A       0.020200
     27 H15         -9.3320    -8.8730    -8.0410 h1         1 A1A       0.020200
     28 H4         -10.7820   -11.1360    -6.3550 h1         1 A1A       0.108700
     29 H1         -13.0170    -9.5390    -1.5130 hc         1 A1A       0.058700
     30 H          -11.5830   -10.4130    -2.0770 hc         1 A1A       0.058700
     31 H2         -11.4290    -8.7510    -1.4830 hc         1 A1A       0.058700
     32 O           -8.4200   -10.6110    -7.3510 oh         1 A1A      -0.657000
@<TRIPOS>BOND
     1     1     8 1   
     2     1     9 1   
     3     1    15 1   
     4     2     3 1   
     5     2     8 1   
     6     2    16 1   
     7     2    17 1   
     8     3     4 1   
     9     3    18 1   
    10     3    19 1   
    11     4     5 1   
    12     4    20 1   
    13     4    21 1   
    14     5     6 1   
    15     5     7 1   
    16     5     8 1   
    17     6    22 1   
    18     6    23 1   
    19     6    24 1   
    20     7    26 1   
    21     7    27 1   
    22     7    32 1   
    23     8    28 1   
    24     9    10 1   
    25     9    12 2   
    26    10    11 1   
    27    11    13 2   
    28    12    13 1   
    29    13    14 1   
    30    14    29 1   
    31    14    30 1   
    32    14    31 1   
    33    25    32 1   
@<TRIPOS>SUBSTRUCTURE
     1 A1A         1 TEMP              0 ****  ****    0 ROOT
