@<TRIPOS>MOLECULE
A1A
   19    19     1     0     0
SMALL
No Charge or Current Charge


@<TRIPOS>ATOM
      1 N1         -10.0430     5.2400   -16.9030 nc         1 A1A      -0.662000
      2 C4         -10.0590     4.9200   -18.2320 cc         1 A1A       0.236900
      3 C5          -8.7930     4.6980   -18.7050 cd         1 A1A      -0.232000
      4 O           -7.8460     2.7550   -14.5450 o          1 A1A      -0.575100
      5 C1          -6.8970     3.5220   -14.4880 c          1 A1A       0.592100
      6 C           -5.4940     3.0660   -14.1120 c3         1 A1A      -0.181100
      7 N           -7.0160     4.8640   -14.7620 ns         1 A1A      -0.529900
      8 C3          -8.7690     5.2120   -16.5380 cd         1 A1A       0.385800
      9 N2          -7.9620     4.8920   -17.6120 na         1 A1A      -0.293500
     10 H7         -10.9960     4.8700   -18.7730 h4         1 A1A       0.038100
     11 H8          -8.4450     4.4300   -19.6970 h4         1 A1A       0.155000
     12 H1          -4.7980     3.3600   -14.9060 hc         1 A1A       0.060367
     13 H2          -5.1410     3.6620   -13.2620 hc         1 A1A       0.060367
     14 H3          -5.4400     1.9920   -13.9030 hc         1 A1A       0.060367
     15 H4          -6.1740     5.4250   -14.6780 hn         1 A1A       0.314500
     16 H6          -9.0580     5.2420   -14.4170 h1         1 A1A       0.072200
     17 H5          -8.1430     6.6160   -15.0570 h1         1 A1A       0.072200
     18 H           -6.9510     4.8160   -17.5830 hn         1 A1A       0.347000
     19 C2          -8.2800     5.5300   -15.1360 c3         1 A1A       0.079700
@<TRIPOS>BOND
     1     1     2 1   
     2     1     8 2   
     3     2     3 2   
     4     2    10 1   
     5     3     9 1   
     6     3    11 1   
     7     4     5 2   
     8     5     6 1   
     9     5     7 1   
    10     6    12 1   
    11     6    13 1   
    12     6    14 1   
    13     7    15 1   
    14     7    19 1   
    15     8     9 1   
    16     8    19 1   
    17     9    18 1   
    18    16    19 1   
    19    17    19 1   
@<TRIPOS>SUBSTRUCTURE
     1 A1A         1 TEMP              0 ****  ****    0 ROOT
