@<TRIPOS>MOLECULE
A1A
   27    29     1     0     0
SMALL
abcg2


@<TRIPOS>ATOM
      1 N1          -6.7710    14.5720    -0.2760 nb         1 A1A      -0.662000
      2 N3          -3.4870    15.2830    -1.2900 nc         1 A1A      -0.501100
      3 C4          -3.3890    15.5300    -0.0080 cd         1 A1A       0.362800
      4 C5          -4.6330    15.3090     0.6370 ca         1 A1A      -0.261900
      5 C6          -5.1680    15.4060     1.9210 ca         1 A1A      -0.023000
      6 C7          -8.7120    15.6580     5.0220 ca         1 A1A      -0.113600
      7 C8          -8.8730    14.4070     5.6030 ca         1 A1A      -0.139000
      8 C10         -9.5520    16.5760     7.0730 ca         1 A1A       0.343900
      9 C11         -9.0660    16.7640     5.7860 ca         1 A1A       0.097000
     10 N4          -9.7120    15.3780     7.6110 nb         1 A1A      -0.643000
     11 C9          -9.3800    14.3160     6.8890 ca         1 A1A       0.334900
     12 C           -8.2450    15.7800     3.6030 c          1 A1A       0.616700
     13 O           -8.8760    16.4080     2.7780 o          1 A1A      -0.545100
     14 C1          -6.4970    15.0680     2.0700 ca         1 A1A      -0.138000
     15 C3          -5.4900    14.9030    -0.3980 ca         1 A1A       0.367500
     16 C2          -7.2480    14.6480     0.9480 ca         1 A1A       0.394900
     17 N2          -4.7470    14.9070    -1.5250 na         1 A1A      -0.160100
     18 H3          -2.4530    15.8540     0.4210 h4         1 A1A       0.054800
     19 H4          -4.5750    15.7280     2.7680 ha         1 A1A       0.127000
     20 H5          -8.6240    13.5070     5.0560 ha         1 A1A       0.133000
     21 H7          -9.8180    17.4340     7.6800 h4         1 A1A       0.040100
     22 H6          -9.5220    13.3460     7.3510 h4         1 A1A       0.029100
     23 H1          -6.5740    14.7340     4.1170 hn         1 A1A       0.161000
     24 H2          -8.2830    14.3550     1.0810 h4         1 A1A       0.038100
     25 H           -5.0390    14.6670    -2.4600 hn         1 A1A       0.390000
     26 N           -7.1020    15.1060     3.3410 ns         1 A1A      -0.152000
     27 CL          -8.8800    18.3730     5.2030 cl         1 A1A      -0.152000
@<TRIPOS>BOND
     1     1    15 ar  
     2     1    16 ar  
     3     2     3 2   
     4     2    17 1   
     5     3     4 1   
     6     3    18 1   
     7     4     5 ar  
     8     4    15 ar  
     9     5    14 ar  
    10     5    19 1   
    11     6     7 ar  
    12     6     9 ar  
    13     6    12 1   
    14     7    11 ar  
    15     7    20 1   
    16     8     9 ar  
    17     8    10 ar  
    18     8    21 1   
    19     9    27 1   
    20    10    11 ar  
    21    11    22 1   
    22    12    13 2   
    23    12    26 1   
    24    14    16 ar  
    25    14    26 1   
    26    15    17 1   
    27    16    24 1   
    28    17    25 1   
    29    23    26 1   
@<TRIPOS>SUBSTRUCTURE
     1 A1A         1 TEMP              0 ****  ****    0 ROOT
