@<TRIPOS>MOLECULE
A1A
   25    25     1     0     0
SMALL
abcg2


@<TRIPOS>ATOM
      1 N1          -4.8020     6.6680   -20.0190 n7         1 A1A      -0.844400
      2 C4          -5.3780     5.3540   -19.7900 c6         1 A1A       0.150800
      3 C5          -6.9070     5.3420   -19.7500 c6         1 A1A      -0.131400
      4 O1         -11.1150     5.3990   -18.3510 o          1 A1A      -0.545000
      5 S           -9.7870     5.4590   -17.7570 s6         1 A1A       1.201100
      6 O           -9.0850     4.2130   -17.4720 o          1 A1A      -0.545000
      7 C           -9.8890     6.3600   -16.2290 c3         1 A1A      -0.344100
      8 N           -8.8820     6.4490   -18.7110 n7         1 A1A      -0.915300
      9 C1          -7.4230     6.3520   -18.7290 c6         1 A1A       0.234500
     10 C3          -5.3010     7.6440   -19.0650 c6         1 A1A       0.150800
     11 C2          -6.8260     7.7290   -18.9970 c6         1 A1A      -0.131400
     12 H9          -5.0390     6.9730   -20.9560 hn         1 A1A       0.405000
     13 H10         -5.0190     4.6710   -20.5610 h1         1 A1A       0.057450
     14 H11         -4.9930     4.9760   -18.8370 h1         1 A1A       0.057450
     15 H12         -7.3020     5.6020   -20.7390 hc         1 A1A       0.054700
     16 H13         -7.2680     4.3400   -19.5110 hc         1 A1A       0.054700
     17 H1         -10.3860     7.3100   -16.4080 h1         1 A1A       0.102367
     18 H2         -10.4640     5.7610   -15.5240 h1         1 A1A       0.102367
     19 H           -8.8880     6.5270   -15.8380 h1         1 A1A       0.102367
     20 H3          -9.3170     6.6120   -19.6130 hn         1 A1A       0.494000
     21 H4          -7.1040     6.0370   -17.7300 h1         1 A1A       0.063700
     22 H7          -4.8850     8.6230   -19.3120 h1         1 A1A       0.057450
     23 H8          -4.9110     7.3820   -18.0760 h1         1 A1A       0.057450
     24 H5          -7.2130     8.1170   -19.9460 hc         1 A1A       0.054700
     25 H6          -7.1320     8.4270   -18.2150 hc         1 A1A       0.054700
@<TRIPOS>BOND
     1     1     2 1   
     2     1    10 1   
     3     1    12 1   
     4     2     3 1   
     5     2    13 1   
     6     2    14 1   
     7     3     9 1   
     8     3    15 1   
     9     3    16 1   
    10     4     5 2   
    11     5     6 2   
    12     5     7 1   
    13     5     8 1   
    14     7    17 1   
    15     7    18 1   
    16     7    19 1   
    17     8     9 1   
    18     8    20 1   
    19     9    11 1   
    20     9    21 1   
    21    10    11 1   
    22    10    22 1   
    23    10    23 1   
    24    11    24 1   
    25    11    25 1   
@<TRIPOS>SUBSTRUCTURE
     1 A1A         1 TEMP              0 ****  ****    0 ROOT
