@<TRIPOS>MOLECULE
A1A
   20    20     1     0     0
SMALL
No Charge or Current Charge


@<TRIPOS>ATOM
      1 N1          -6.9070     5.5220   -17.0550 na         1 A1A      -0.060700
      2 C4          -8.9880     4.7860   -16.6610 cc         1 A1A      -0.207000
      3 C5          -7.7550     5.0960   -16.0590 cc         1 A1A       0.011700
      4 C6          -5.4600     5.7860   -16.9660 c3         1 A1A       0.044900
      5 C3         -11.2670     5.3070   -18.7520 c2         1 A1A      -0.175000
      6 C1          -8.9250     5.0130   -18.0080 cd         1 A1A       0.038200
      7 N           -7.6340     5.5060   -18.2570 na         1 A1A      -0.008000
      8 C           -7.1390     6.0900   -19.5150 c3         1 A1A       0.042900
      9 H6          -9.8540     4.4150   -16.1200 ha         1 A1A       0.194000
     10 H7          -7.4580     5.0120   -15.0190 h4         1 A1A       0.203000
     11 H8          -4.9220     5.1490   -17.6780 h1         1 A1A       0.093033
     12 H10         -5.2610     6.8400   -17.1980 h1         1 A1A       0.093033
     13 H9          -5.1020     5.5700   -15.9520 h1         1 A1A       0.093033
     14 H5         -11.5430     5.7940   -17.8160 ha         1 A1A       0.195000
     15 H4         -12.0460     5.2080   -19.5090 ha         1 A1A       0.195000
     16 H3          -9.7490     4.4080   -19.9360 ha         1 A1A       0.206000
     17 H2          -6.6900     7.0710   -19.3190 h1         1 A1A       0.092367
     18 H           -6.3880     5.4270   -19.9590 h1         1 A1A       0.092367
     19 H1          -7.9680     6.2180   -20.2220 h1         1 A1A       0.092367
     20 C2         -10.0120     4.8460   -18.9690 cf         1 A1A      -0.236200
@<TRIPOS>BOND
     1     1     3 2   
     2     1     4 1   
     3     1     7 1   
     4     2     3 1   
     5     2     6 2   
     6     2     9 1   
     7     3    10 1   
     8     4    11 1   
     9     4    12 1   
    10     4    13 1   
    11     5    14 1   
    12     5    15 1   
    13     5    20 2   
    14     6     7 1   
    15     6    20 1   
    16     7     8 1   
    17     8    17 1   
    18     8    18 1   
    19     8    19 1   
    20    16    20 1   
@<TRIPOS>SUBSTRUCTURE
     1 A1A         1 TEMP              0 ****  ****    0 ROOT
