@<TRIPOS>MOLECULE
A1A
   32    33     1     0     0
SMALL
No Charge or Current Charge


@<TRIPOS>ATOM
      1 N1           0.4660    14.8500    -0.2100 nb         1 A1A      -0.300000
      2 N3          -3.3030    15.9130     1.0660 na         1 A1A      -0.317400
      3 C4           0.2160    11.8690    -3.2870 c3         1 A1A       0.144600
      4 C5          -0.6590    14.6000    -0.9100 ca         1 A1A       0.451900
      5 C6           0.3100    15.4950     0.9720 ca         1 A1A       0.180900
      6 C7          -1.9660    15.6430     0.8130 ca         1 A1A       0.147500
      7 C8          -4.1330    15.4460     0.0220 cc         1 A1A      -0.184100
      8 C10         -1.8990    14.9970    -0.3940 ca         1 A1A      -0.264800
      9 O           -0.5280    11.0770    -2.3400 oh         1 A1A      -0.646000
     10 C3           0.6280    13.2640    -2.6990 c3         1 A1A       0.234500
     11 C1           1.3150    14.1880    -3.7670 c3         1 A1A      -0.072700
     12 C2           1.7360    15.5700    -3.2020 c3         1 A1A      -0.087600
     13 C            2.5390    13.5160    -4.4430 c3         1 A1A      -0.087600
     14 N           -0.5680    13.9330    -2.1250 nu         1 A1A      -0.912100
     15 C9          -3.2530    14.8790    -0.8820 cd         1 A1A      -0.206200
     16 N2          -0.8570    15.9080     1.5260 nb         1 A1A      -0.237000
     17 H1          -3.6290    16.3890     1.9020 hn         1 A1A       0.360000
     18 H10          1.1200    11.3220    -3.5850 h1         1 A1A       0.020200
     19 H13          1.2170    15.7000     1.5380 h5         1 A1A       0.041100
     20 H14         -5.2170    15.5520     0.0100 h4         1 A1A       0.214000
     21 H11         -0.7440    10.2270    -2.7840 ho         1 A1A       0.441000
     22 H            1.3620    13.0570    -1.9050 h1         1 A1A       0.104700
     23 H5           0.5790    14.3790    -4.5590 hc         1 A1A       0.040700
     24 H6           0.8680    16.1390    -2.8500 hc         1 A1A       0.037533
     25 H7           2.4370    15.4540    -2.3670 hc         1 A1A       0.037533
     26 H8           2.2250    16.1740    -3.9760 hc         1 A1A       0.037533
     27 H3           2.2430    12.6350    -5.0250 hc         1 A1A       0.037533
     28 H4           3.0290    14.2090    -5.1370 hc         1 A1A       0.037533
     29 H2           3.2780    13.2060    -3.6940 hc         1 A1A       0.037533
     30 H12         -1.4640    13.5890    -2.4590 hn         1 A1A       0.489000
     31 H15         -3.5520    14.4180    -1.8220 ha         1 A1A       0.199000
     32 H9          -0.3860    12.0280    -4.1910 h1         1 A1A       0.020200
@<TRIPOS>BOND
     1     1     4 ar  
     2     1     5 ar  
     3     2     6 1   
     4     2     7 1   
     5     2    17 1   
     6     3     9 1   
     7     3    10 1   
     8     3    18 1   
     9     3    32 1   
    10     4     8 ar  
    11     4    14 1   
    12     5    16 ar  
    13     5    19 1   
    14     6     8 ar  
    15     6    16 ar  
    16     7    15 2   
    17     7    20 1   
    18     8    15 1   
    19     9    21 1   
    20    10    11 1   
    21    10    14 1   
    22    10    22 1   
    23    11    12 1   
    24    11    13 1   
    25    11    23 1   
    26    12    24 1   
    27    12    25 1   
    28    12    26 1   
    29    13    27 1   
    30    13    28 1   
    31    13    29 1   
    32    14    30 1   
    33    15    31 1   
@<TRIPOS>SUBSTRUCTURE
     1 A1A         1 TEMP              0 ****  ****    0 ROOT
