@<TRIPOS>MOLECULE
A1A
   32    33     1     0     0
SMALL
abcg2


@<TRIPOS>ATOM
      1 N1         -12.6000    -9.6550    -6.9040 nu         1 A1A      -0.906100
      2 C4         -12.7900   -11.8470    -8.0420 c5         1 A1A      -0.092400
      3 C5         -11.8570   -12.6460    -8.9730 c5         1 A1A      -0.075400
      4 C6         -10.4680   -12.0000    -8.8320 c5         1 A1A      -0.072400
      5 C7         -10.7290   -10.5780    -8.3250 c5         1 A1A      -0.065000
      6 C8         -11.1780    -9.6740    -9.4750 c3         1 A1A      -0.089100
      7 C9          -9.5160    -9.9260    -7.6770 c3         1 A1A       0.176600
      8 C3         -11.8820   -10.8360    -7.3310 c5         1 A1A       0.233500
      9 C2         -12.5300    -9.1230    -5.6860 cc         1 A1A       0.722300
     10 S          -13.4490    -7.7180    -5.2080 ss         1 A1A      -0.060300
     11 N          -12.8070    -7.7680    -3.6640 nc         1 A1A      -0.526100
     12 N2         -11.7960    -9.5630    -4.6960 nd         1 A1A      -0.773000
     13 C1         -11.9890    -8.7780    -3.6030 cd         1 A1A       0.628300
     14 C          -11.2500    -9.0880    -2.3470 c3         1 A1A      -0.115400
     15 H3         -13.2210    -9.2260    -7.5730 hn         1 A1A       0.497000
     16 H6         -13.3160   -12.4770    -7.3240 hc         1 A1A       0.046700
     17 H5         -13.5570   -11.3250    -8.6200 hc         1 A1A       0.046700
     18 H8         -11.8290   -13.7030    -8.7080 hc         1 A1A       0.044200
     19 H7         -12.2100   -12.5930   -10.0030 hc         1 A1A       0.044200
     20 H10         -9.8730   -12.5520    -8.1010 hc         1 A1A       0.056200
     21 H9          -9.9040   -12.0020    -9.7670 hc         1 A1A       0.056200
     22 H13        -11.4120    -8.6650    -9.1290 hc         1 A1A       0.036367
     23 H12        -10.3850    -9.5860   -10.2200 hc         1 A1A       0.036367
     24 H11        -12.0600   -10.0590    -9.9890 hc         1 A1A       0.036367
     25 H16         -8.3080   -10.2440    -6.1960 ho         1 A1A       0.446000
     26 H14         -8.7590    -9.7540    -8.4560 h1         1 A1A       0.020200
     27 H15         -9.8090    -8.9350    -7.3010 h1         1 A1A       0.020200
     28 H4         -11.4660   -11.2960    -6.4350 h1         1 A1A       0.108700
     29 H1         -11.5000    -8.3800    -1.5620 hc         1 A1A       0.058700
     30 H          -11.4900   -10.0940    -2.0010 hc         1 A1A       0.058700
     31 H2         -10.1740    -9.0550    -2.5210 hc         1 A1A       0.058700
     32 O           -9.0030   -10.7340    -6.6430 oh         1 A1A      -0.657000
@<TRIPOS>BOND
     1     1     8 1   
     2     1     9 1   
     3     1    15 1   
     4     2     3 1   
     5     2     8 1   
     6     2    16 1   
     7     2    17 1   
     8     3     4 1   
     9     3    18 1   
    10     3    19 1   
    11     4     5 1   
    12     4    20 1   
    13     4    21 1   
    14     5     6 1   
    15     5     7 1   
    16     5     8 1   
    17     6    22 1   
    18     6    23 1   
    19     6    24 1   
    20     7    26 1   
    21     7    27 1   
    22     7    32 1   
    23     8    28 1   
    24     9    10 1   
    25     9    12 2   
    26    10    11 1   
    27    11    13 2   
    28    12    13 1   
    29    13    14 1   
    30    14    29 1   
    31    14    30 1   
    32    14    31 1   
    33    25    32 1   
@<TRIPOS>SUBSTRUCTURE
     1 A1A         1 TEMP              0 ****  ****    0 ROOT
