@<TRIPOS>MOLECULE
A1A
   19    19     1     0     0
SMALL
No Charge or Current Charge


@<TRIPOS>ATOM
      1 C4          -9.2380     5.1530   -17.8050 ca         1 A1A      -0.019800
      2 C5         -10.7200     4.9710   -17.7500 ce         1 A1A      -0.226200
      3 C6         -11.5350     4.7250   -18.8030 c2         1 A1A      -0.202000
      4 C7          -8.5020     5.1510   -16.6010 ca         1 A1A      -0.027300
      5 C3          -8.5470     5.3380   -19.0230 ca         1 A1A      -0.009000
      6 C2          -7.1500     5.5040   -19.0210 ca         1 A1A      -0.103000
      7 C1          -6.4430     5.4900   -17.8040 ca         1 A1A      -0.081000
      8 N           -7.1150     5.3220   -16.5920 na         1 A1A       0.079300
      9 C           -6.3680     5.2980   -15.3230 c3         1 A1A       0.011900
     10 H6         -11.1520     5.0370   -16.7470 ha         1 A1A       0.199000
     11 H8         -12.6110     4.6000   -18.6670 ha         1 A1A       0.188500
     12 H7         -11.1770     4.6290   -19.8270 ha         1 A1A       0.188500
     13 H9          -8.9950     5.0080   -15.6390 h4         1 A1A       0.183000
     14 H5          -9.0780     5.3610   -19.9700 ha         1 A1A       0.165000
     15 H4          -6.6170     5.6430   -19.9600 ha         1 A1A       0.178000
     16 H3          -5.3590     5.6120   -17.7760 h4         1 A1A       0.185000
     17 H2          -6.9860     5.7100   -14.5150 h1         1 A1A       0.097033
     18 H           -6.0960     4.2640   -15.0780 h1         1 A1A       0.097033
     19 H1          -5.4560     5.9000   -15.4100 h1         1 A1A       0.097033
@<TRIPOS>BOND
     1     1     2 1   
     2     1     4 ar  
     3     1     5 ar  
     4     2     3 2   
     5     2    10 1   
     6     3    11 1   
     7     3    12 1   
     8     4     8 2   
     9     4    13 1   
    10     5     6 ar  
    11     5    14 1   
    12     6     7 ar  
    13     6    15 1   
    14     7     8 1   
    15     7    16 1   
    16     8     9 1   
    17     9    17 1   
    18     9    18 1   
    19     9    19 1   
@<TRIPOS>SUBSTRUCTURE
     1 A1A         1 TEMP              0 ****  ****    0 ROOT
