@<TRIPOS>MOLECULE
A1A
   22    23     1     0     0
SMALL
No Charge or Current Charge


@<TRIPOS>ATOM
      1 N1          -5.3430     5.9020   -18.4530 nb         1 A1A      -0.776000
      2 C4          -8.1250     5.5660   -18.8040 ca         1 A1A       0.026000
      3 C5          -9.5090     5.3990   -18.9830 ca         1 A1A      -0.115000
      4 C6         -10.3480     5.2530   -17.8660 ca         1 A1A      -0.086000
      5 C7          -9.8010     5.2740   -16.5720 ca         1 A1A      -0.128000
      6 C8          -8.4160     5.4410   -16.3900 ca         1 A1A      -0.078000
      7 C           -4.0580     5.9710   -15.9370 c3         1 A1A       0.226100
      8 C1          -6.1610     5.7610   -17.4010 ca         1 A1A       0.643900
      9 C9          -7.5640     5.5890   -17.5110 ca         1 A1A      -0.131000
     10 C3          -7.2690     5.7140   -19.9040 ca         1 A1A      -0.222000
     11 C2          -5.8940     5.8780   -19.6850 ca         1 A1A       0.388900
     12 H6          -9.9350     5.3820   -19.9840 ha         1 A1A       0.117000
     13 H7         -11.4190     5.1240   -18.0030 ha         1 A1A       0.113000
     14 H8         -10.4520     5.1610   -15.7080 ha         1 A1A       0.113000
     15 H9          -8.0230     5.4530   -15.3770 ha         1 A1A       0.102000
     16 H           -3.8480     5.9570   -14.8590 h1         1 A1A       0.039367
     17 H2          -3.4860     5.1600   -16.4090 h1         1 A1A       0.039367
     18 H1          -3.7070     6.9290   -16.3440 h1         1 A1A       0.039367
     19 H3          -6.1050     5.6940   -15.3710 hn         1 A1A       0.492000
     20 H5          -7.6540     5.7020   -20.9200 ha         1 A1A       0.122000
     21 H4          -5.2100     5.9940   -20.5250 h4         1 A1A       0.012100
     22 N           -5.5030     5.7990   -16.1830 nu         1 A1A      -0.939100
@<TRIPOS>BOND
     1     1     8 ar  
     2     1    11 ar  
     3     2     3 ar  
     4     2     9 ar  
     5     2    10 ar  
     6     3     4 ar  
     7     3    12 1   
     8     4     5 ar  
     9     4    13 1   
    10     5     6 ar  
    11     5    14 1   
    12     6     9 ar  
    13     6    15 1   
    14     7    16 1   
    15     7    17 1   
    16     7    18 1   
    17     7    22 1   
    18     8     9 ar  
    19     8    22 1   
    20    10    11 ar  
    21    10    20 1   
    22    11    21 1   
    23    19    22 1   
@<TRIPOS>SUBSTRUCTURE
     1 A1A         1 TEMP              0 ****  ****    0 ROOT
