@<TRIPOS>MOLECULE
A1A
   24    24     1     0     0
SMALL
No Charge or Current Charge


@<TRIPOS>ATOM
      1 N1          -5.3490     7.7080   -16.9220 nt         1 A1A      -0.595000
      2 C4          -9.2680     4.6750   -16.3270 ca         1 A1A      -0.048000
      3 C5         -10.0360     4.6080   -17.5000 ca         1 A1A      -0.150000
      4 C6          -9.4100     4.6730   -18.7550 ca         1 A1A      -0.037000
      5 C7          -8.0100     4.8080   -18.8420 ca         1 A1A      -0.061000
      6 C8          -7.3900     4.8730   -20.1370 cg         1 A1A       0.337000
      7 O1          -5.3120     6.8850   -14.8500 o          1 A1A      -0.600100
      8 C9          -5.2310     6.6790   -16.0500 c          1 A1A       0.577100
      9 C1          -4.9810     5.2710   -16.6610 c3         1 A1A       0.084300
     10 C           -3.5420     5.1350   -17.2040 c3         1 A1A      -0.088100
     11 O           -5.8580     5.0120   -17.7850 os         1 A1A      -0.342100
     12 C2          -7.2320     4.8820   -17.6660 ca         1 A1A       0.172100
     13 N           -6.9010     4.9260   -21.1960 n1         1 A1A      -0.458000
     14 C3          -7.8720     4.8090   -16.4070 ca         1 A1A      -0.197000
     15 H9          -5.5120     8.6400   -16.5710 hn         1 A1A       0.322500
     16 H8          -5.2990     7.5320   -17.9150 hn         1 A1A       0.322500
     17 H5          -9.7550     4.6200   -15.3550 ha         1 A1A       0.120000
     18 H6         -11.1170     4.5030   -17.4360 ha         1 A1A       0.125000
     19 H7         -10.0140     4.6180   -19.6590 ha         1 A1A       0.128000
     20 H3          -5.1250     4.5240   -15.8700 h1         1 A1A       0.078700
     21 H2          -2.8130     5.3160   -16.4050 hc         1 A1A       0.058367
     22 H1          -3.3740     4.1250   -17.5960 hc         1 A1A       0.058367
     23 H           -3.3550     5.8550   -18.0100 hc         1 A1A       0.058367
     24 H4          -7.3070     4.8490   -15.4800 ha         1 A1A       0.134000
@<TRIPOS>BOND
     1     1     8 1   
     2     1    15 1   
     3     1    16 1   
     4     2     3 ar  
     5     2    14 ar  
     6     2    17 1   
     7     3     4 ar  
     8     3    18 1   
     9     4     5 ar  
    10     4    19 1   
    11     5     6 1   
    12     5    12 ar  
    13     6    13 3   
    14     7     8 2   
    15     8     9 1   
    16     9    10 1   
    17     9    11 1   
    18     9    20 1   
    19    10    21 1   
    20    10    22 1   
    21    10    23 1   
    22    11    12 1   
    23    12    14 ar  
    24    14    24 1   
@<TRIPOS>SUBSTRUCTURE
     1 A1A         1 TEMP              0 ****  ****    0 ROOT
