@<TRIPOS>MOLECULE
A1A
   31    32     1     0     0
SMALL
No Charge or Current Charge


@<TRIPOS>ATOM
      1 N1         -14.8610   -12.6150    -6.5570 n7         1 A1A      -0.868400
      2 C4         -11.5290    -9.3080    -9.9610 ca         1 A1A      -0.152000
      3 C5         -10.2200    -9.6980   -10.2690 ca         1 A1A       0.174000
      4 C6          -9.7720   -10.9800    -9.9310 ca         1 A1A      -0.152000
      5 C7         -10.6320   -11.8720    -9.2690 ca         1 A1A      -0.075000
      6 C8         -14.2170   -11.8440    -7.6510 c6         1 A1A       0.171800
      7 C10        -12.5330   -12.5410    -5.5900 c6         1 A1A      -0.080400
      8 F           -9.3950    -8.8410   -10.9090 f          1 A1A      -0.178000
      9 C3         -12.3940   -10.1980    -9.2990 ca         1 A1A      -0.075000
     10 C2         -11.9520   -11.4930    -8.9180 ca         1 A1A      -0.093300
     11 C1         -12.8910   -12.5130    -8.1890 c6         1 A1A      -0.069700
     12 C          -13.3220   -13.6250    -9.2010 c          1 A1A       0.622100
     13 N          -14.2650   -14.5010    -8.7840 nt         1 A1A      -0.607000
     14 O          -12.8780   -13.7310   -10.3340 o          1 A1A      -0.606100
     15 C11        -12.1800   -13.2010    -6.9450 c6         1 A1A      -0.059400
     16 C9         -14.0560   -12.6200    -5.3100 c6         1 A1A       0.157800
     17 H15        -15.7850   -12.2110    -6.3460 hn         1 A1A       0.422000
     18 H3         -11.8770    -8.3180   -10.2420 ha         1 A1A       0.132000
     19 H4          -8.7610   -11.2850   -10.1890 ha         1 A1A       0.132000
     20 H5         -10.2670   -12.8720    -9.0480 ha         1 A1A       0.117500
     21 H7         -13.9950   -10.8400    -7.2580 h1         1 A1A       0.048700
     22 H6         -14.9270   -11.7130    -8.4820 h1         1 A1A       0.048700
     23 H12        -12.2120   -11.4900    -5.6040 hc         1 A1A       0.045200
     24 H11        -11.9800   -13.0220    -4.7720 hc         1 A1A       0.045200
     25 H2         -13.4070    -9.8600    -9.1010 ha         1 A1A       0.117500
     26 H1         -14.5920   -15.2240    -9.4040 hn         1 A1A       0.312500
     27 H          -14.6740   -14.3630    -7.8670 hn         1 A1A       0.312500
     28 H14        -11.0890   -13.2120    -7.0530 hc         1 A1A       0.046700
     29 H13        -12.4600   -14.2620    -6.8790 hc         1 A1A       0.046700
     30 H10        -14.3440   -11.7670    -4.6790 h1         1 A1A       0.032200
     31 H9         -14.2870   -13.5380    -4.7480 h1         1 A1A       0.032200
@<TRIPOS>BOND
     1     1     6 1   
     2     1    16 1   
     3     1    17 1   
     4     2     3 ar  
     5     2     9 ar  
     6     2    18 1   
     7     3     4 ar  
     8     3     8 1   
     9     4     5 ar  
    10     4    19 1   
    11     5    10 ar  
    12     5    20 1   
    13     6    11 1   
    14     6    21 1   
    15     6    22 1   
    16     7    15 1   
    17     7    16 1   
    18     7    23 1   
    19     7    24 1   
    20     9    10 ar  
    21     9    25 1   
    22    10    11 1   
    23    11    12 1   
    24    11    15 1   
    25    12    13 1   
    26    12    14 2   
    27    13    26 1   
    28    13    27 1   
    29    15    28 1   
    30    15    29 1   
    31    16    30 1   
    32    16    31 1   
@<TRIPOS>SUBSTRUCTURE
     1 A1A         1 TEMP              0 ****  ****    0 ROOT
