@<TRIPOS>MOLECULE
A1A
   31    33     1     0     0
SMALL
No Charge or Current Charge


@<TRIPOS>ATOM
      1 N1          -4.1000     6.4780   -14.0240 n7         1 A1A      -0.839400
      2 C4          -6.2410     6.1320   -17.7430 ca         1 A1A       0.325000
      3 C5          -5.6610     6.4090   -18.9850 ca         1 A1A      -0.232000
      4 C6          -6.4300     6.2810   -20.1420 ca         1 A1A       0.369900
      5 C7          -8.3030     5.6220   -18.9320 ca         1 A1A       0.277000
      6 C8          -9.6520     5.2180   -18.9050 ca         1 A1A      -0.089000
      7 C10         -9.5890     5.0060   -16.4870 ca         1 A1A      -0.119000
      8 C11         -8.2440     5.4080   -16.4910 ca         1 A1A      -0.082000
      9 C9         -10.2950     4.9130   -17.6940 ca         1 A1A      -0.098000
     10 C12         -7.5940     5.7240   -17.7080 ca         1 A1A      -0.088000
     11 N2          -7.7240     5.8980   -20.1230 nb         1 A1A      -0.672000
     12 N           -5.4640     6.2850   -16.5710 nh         1 A1A      -0.794400
     13 C1          -5.5990     7.5420   -15.7620 c6         1 A1A       0.152800
     14 C2          -4.1250     5.6230   -16.4690 c6         1 A1A       0.152800
     15 C3          -3.6400     5.4270   -14.9870 c6         1 A1A       0.149300
     16 C           -4.4450     7.7480   -14.7210 c6         1 A1A       0.149300
     17 H8          -4.9750     6.1370   -13.6090 hn         1 A1A       0.415000
     18 H9          -4.6290     6.7330   -19.0590 ha         1 A1A       0.122000
     19 H10         -6.0020     6.4950   -21.1200 h4         1 A1A       0.016100
     20 H11        -10.2030     5.1380   -19.8380 ha         1 A1A       0.131000
     21 H13        -10.0820     4.7660   -15.5470 ha         1 A1A       0.114000
     22 H14         -7.7110     5.4650   -15.5450 ha         1 A1A       0.122000
     23 H12        -11.3370     4.6010   -17.6940 ha         1 A1A       0.116000
     24 H3          -6.5530     7.5180   -15.2150 h1         1 A1A       0.045200
     25 H2          -5.6320     8.4190   -16.4240 h1         1 A1A       0.045200
     26 H5          -4.1400     4.6430   -16.9680 h1         1 A1A       0.045200
     27 H4          -3.3800     6.2380   -16.9950 h1         1 A1A       0.045200
     28 H7          -3.9820     4.4460   -14.6240 h1         1 A1A       0.054950
     29 H6          -2.5400     5.3940   -14.9920 h1         1 A1A       0.054950
     30 H           -3.5540     8.1350   -15.2380 h1         1 A1A       0.054950
     31 H1          -4.7520     8.5090   -13.9870 h1         1 A1A       0.054950
@<TRIPOS>BOND
     1     1    15 1   
     2     1    16 1   
     3     1    17 1   
     4     2     3 ar  
     5     2    10 ar  
     6     2    12 1   
     7     3     4 ar  
     8     3    18 1   
     9     4    11 ar  
    10     4    19 1   
    11     5     6 ar  
    12     5    10 ar  
    13     5    11 ar  
    14     6     9 ar  
    15     6    20 1   
    16     7     8 ar  
    17     7     9 ar  
    18     7    21 1   
    19     8    10 ar  
    20     8    22 1   
    21     9    23 1   
    22    12    13 1   
    23    12    14 1   
    24    13    16 1   
    25    13    24 1   
    26    13    25 1   
    27    14    15 1   
    28    14    26 1   
    29    14    27 1   
    30    15    28 1   
    31    15    29 1   
    32    16    30 1   
    33    16    31 1   
@<TRIPOS>SUBSTRUCTURE
     1 A1A         1 TEMP              0 ****  ****    0 ROOT
