@<TRIPOS>MOLECULE
A1A
   28    29     1     0     0
SMALL
No Charge or Current Charge


@<TRIPOS>ATOM
      1 N1          -8.2890     4.8400   -17.6860 nb         1 A1A      -0.342000
      2 N3          -3.9880     6.7520   -19.9260 n7         1 A1A      -0.850400
      3 C4          -7.0290     4.9170   -17.2170 ca         1 A1A       0.426900
      4 C5          -4.6550     5.7960   -17.6250 c6         1 A1A       0.199300
      5 C6          -4.0090     6.9640   -18.4420 c6         1 A1A       0.138800
      6 C7          -5.0510     5.8110   -20.4050 c6         1 A1A       0.138800
      7 C8          -6.3460     5.7950   -19.5250 c6         1 A1A       0.199300
      8 C          -10.9560     4.6290   -18.5680 c3         1 A1A       0.159900
      9 O          -10.5280     4.1810   -17.2660 os         1 A1A      -0.454300
     10 C1          -9.2150     4.3010   -16.8710 ca         1 A1A       0.392300
     11 N           -6.6110     4.5020   -16.0030 nb         1 A1A      -0.275000
     12 C3          -7.5390     3.9650   -15.1910 ca         1 A1A       0.167900
     13 C2          -8.8740     3.8430   -15.5940 ca         1 A1A      -0.306000
     14 N2          -6.0580     5.4850   -18.0790 nh         1 A1A      -0.780300
     15 H14         -4.1160     7.6680   -20.3770 hn         1 A1A       0.412000
     16 H6          -4.6460     6.0920   -16.5650 h1         1 A1A       0.060200
     17 H5          -4.0230     4.9000   -17.7170 h1         1 A1A       0.060200
     18 H8          -4.5900     7.8740   -18.2290 h1         1 A1A       0.056700
     19 H7          -2.9870     7.1500   -18.0800 h1         1 A1A       0.056700
     20 H10         -5.3120     6.0440   -21.4480 h1         1 A1A       0.056700
     21 H11         -4.6390     4.7910   -20.4020 h1         1 A1A       0.056700
     22 H12         -6.8480     6.7710   -19.6060 h1         1 A1A       0.060200
     23 H13         -7.0260     5.0440   -19.9540 h1         1 A1A       0.060200
     24 H2         -12.0310     4.4520   -18.7000 h1         1 A1A       0.047367
     25 H1         -10.7720     5.7050   -18.6920 h1         1 A1A       0.047367
     26 H          -10.4230     4.0910   -19.3630 h1         1 A1A       0.047367
     27 H4          -7.2060     3.6290   -14.2110 h4         1 A1A       0.020100
     28 H3          -9.6220     3.4090   -14.9380 ha         1 A1A       0.146000
@<TRIPOS>BOND
     1     1     3 ar  
     2     1    10 ar  
     3     2     5 1   
     4     2     6 1   
     5     2    15 1   
     6     3    11 ar  
     7     3    14 1   
     8     4     5 1   
     9     4    14 1   
    10     4    16 1   
    11     4    17 1   
    12     5    18 1   
    13     5    19 1   
    14     6     7 1   
    15     6    20 1   
    16     6    21 1   
    17     7    14 1   
    18     7    22 1   
    19     7    23 1   
    20     8     9 1   
    21     8    24 1   
    22     8    25 1   
    23     8    26 1   
    24     9    10 1   
    25    10    13 ar  
    26    11    12 ar  
    27    12    13 ar  
    28    12    27 1   
    29    13    28 1   
@<TRIPOS>SUBSTRUCTURE
     1 A1A         1 TEMP              0 ****  ****    0 ROOT
