@<TRIPOS>MOLECULE
A1A
   26    27     1     0     0
SMALL
abcg2


@<TRIPOS>ATOM
      1 N1          -7.4270     9.1220   -26.0970 na         1 A1A       0.219000
      2 N3          -5.5610     8.1370   -26.0310 nc         1 A1A      -0.359000
      3 C4          -8.6710     9.4960   -26.6510 ca         1 A1A      -0.000200
      4 C5          -9.3570     8.6020   -27.4640 ca         1 A1A      -0.102000
      5 C6         -10.5770     8.9780   -28.0060 ca         1 A1A      -0.098000
      6 C7         -11.1170    10.2270   -27.7290 ca         1 A1A      -0.103000
      7 C8         -10.4250    11.1090   -26.9100 ca         1 A1A      -0.098000
      8 N           -4.4110     7.4970   -23.2270 n8         1 A1A      -0.989200
      9 C1          -4.6330     8.8170   -23.8030 c3         1 A1A       0.151200
     10 C           -3.3130     9.3750   -24.3230 c3         1 A1A      -0.082100
     11 C2          -5.6810     8.8370   -24.8770 cc         1 A1A       0.156300
     12 N2          -6.6060     8.3130   -26.7550 nd         1 A1A      -0.188800
     13 C3          -6.8890     9.4790   -24.9090 cd         1 A1A      -0.193000
     14 C9          -9.1960    10.7520   -26.3750 ca         1 A1A      -0.102000
     15 H7          -8.9480     7.6220   -27.6660 ha         1 A1A       0.132500
     16 H8         -11.1120     8.2820   -28.6380 ha         1 A1A       0.122000
     17 H9         -12.0730    10.5110   -28.1480 ha         1 A1A       0.121000
     18 H10        -10.8340    12.0860   -26.6930 ha         1 A1A       0.122000
     19 H12         -4.1130     6.8580   -23.9570 hn         1 A1A       0.400500
     20 H3          -4.9850     9.4680   -22.9980 h1         1 A1A       0.056700
     21 H2          -3.4380    10.3870   -24.7090 hc         1 A1A       0.044033
     22 H           -2.5740     9.4030   -23.5230 hc         1 A1A       0.044033
     23 H1          -2.9190     8.7550   -25.1300 hc         1 A1A       0.044033
     24 H6          -7.3870    10.1180   -24.2000 h4         1 A1A       0.170000
     25 H11         -8.6520    11.4570   -25.7600 ha         1 A1A       0.132500
     26 H4          -5.2840     7.1260   -22.8730 hn         1 A1A       0.400500
@<TRIPOS>BOND
     1     1     3 1   
     2     1    12 1   
     3     1    13 1   
     4     2    11 1   
     5     2    12 2   
     6     3     4 ar  
     7     3    14 ar  
     8     4     5 ar  
     9     4    15 1   
    10     5     6 ar  
    11     5    16 1   
    12     6     7 ar  
    13     6    17 1   
    14     7    14 ar  
    15     7    18 1   
    16     8     9 1   
    17     8    19 1   
    18     8    26 1   
    19     9    10 1   
    20     9    11 1   
    21     9    20 1   
    22    10    21 1   
    23    10    22 1   
    24    10    23 1   
    25    11    13 2   
    26    13    24 1   
    27    14    25 1   
@<TRIPOS>SUBSTRUCTURE
     1 A1A         1 TEMP              0 ****  ****    0 ROOT
