@<TRIPOS>MOLECULE
A1A
   22    23     1     0     0
SMALL
abcg2


@<TRIPOS>ATOM
      1 N1          -5.3450     5.8590   -18.4290 nb         1 A1A      -0.776000
      2 C4          -8.1040     5.5750   -18.7960 ca         1 A1A       0.026000
      3 C5          -9.5000     5.4320   -18.9560 ca         1 A1A      -0.115000
      4 C6         -10.3160     5.2800   -17.8660 ca         1 A1A      -0.086000
      5 C7          -9.7720     5.2600   -16.5710 ca         1 A1A      -0.128000
      6 C8          -8.4190     5.4010   -16.3900 ca         1 A1A      -0.078000
      7 C           -4.1220     5.9830   -15.9930 c3         1 A1A       0.226100
      8 C1          -6.1250     5.7340   -17.3760 ca         1 A1A       0.643900
      9 C9          -7.5580     5.5690   -17.4930 ca         1 A1A      -0.131000
     10 C3          -7.2300     5.7180   -19.9040 ca         1 A1A      -0.222000
     11 C2          -5.8970     5.8440   -19.6590 ca         1 A1A       0.388900
     12 H6          -9.9150     5.4420   -19.9560 ha         1 A1A       0.117000
     13 H7         -11.3850     5.1720   -18.0000 ha         1 A1A       0.113000
     14 H8         -10.4200     5.1330   -15.7140 ha         1 A1A       0.113000
     15 H9          -8.0340     5.3730   -15.3790 ha         1 A1A       0.102000
     16 H           -3.9030     5.9760   -14.9290 h1         1 A1A       0.039367
     17 H2          -3.5290     5.2020   -16.4710 h1         1 A1A       0.039367
     18 H1          -3.8040     6.9420   -16.4060 h1         1 A1A       0.039367
     19 H3          -6.1040     5.7830   -15.3390 hn         1 A1A       0.492000
     20 H5          -7.6170     5.7220   -20.9140 ha         1 A1A       0.122000
     21 H4          -5.1980     5.9470   -20.4820 h4         1 A1A       0.012100
     22 N           -5.5350     5.7570   -16.1640 nu         1 A1A      -0.939100
@<TRIPOS>BOND
     1     1     8 ar  
     2     1    11 ar  
     3     2     3 ar  
     4     2     9 ar  
     5     2    10 ar  
     6     3     4 ar  
     7     3    12 1   
     8     4     5 ar  
     9     4    13 1   
    10     5     6 ar  
    11     5    14 1   
    12     6     9 ar  
    13     6    15 1   
    14     7    16 1   
    15     7    17 1   
    16     7    18 1   
    17     7    22 1   
    18     8     9 ar  
    19     8    22 1   
    20    10    11 ar  
    21    10    20 1   
    22    11    21 1   
    23    19    22 1   
@<TRIPOS>SUBSTRUCTURE
     1 A1A         1 TEMP              0 ****  ****    0 ROOT
