@<TRIPOS>MOLECULE
A1A
   26    27     1     0     0
SMALL
No Charge or Current Charge


@<TRIPOS>ATOM
      1 N1          -7.2920     9.0720   -26.3290 na         1 A1A       0.219000
      2 N3          -5.3910     8.1230   -26.1780 nc         1 A1A      -0.359000
      3 C4          -8.5630     9.4760   -26.7390 ca         1 A1A      -0.000200
      4 C5          -9.4920     8.5240   -27.2070 ca         1 A1A      -0.102000
      5 C6         -10.7730     8.9270   -27.6230 ca         1 A1A      -0.098000
      6 C7         -11.1330    10.2850   -27.5760 ca         1 A1A      -0.103000
      7 C8         -10.2120    11.2400   -27.1140 ca         1 A1A      -0.098000
      8 N           -4.3210     7.3320   -23.4520 n8         1 A1A      -0.989200
      9 C1          -4.7270     8.7140   -23.8040 c3         1 A1A       0.151200
     10 C           -3.4780     9.5880   -24.0360 c3         1 A1A      -0.082100
     11 C2          -5.6840     8.7500   -24.9870 cc         1 A1A       0.156300
     12 N2          -6.3920     8.3030   -27.0070 nd         1 A1A      -0.188800
     13 C3          -6.9050     9.3550   -25.0450 cd         1 A1A      -0.193000
     14 C9          -8.9300    10.8380   -26.6980 ca         1 A1A      -0.102000
     15 H7          -9.2210     7.4710   -27.2460 ha         1 A1A       0.132500
     16 H8         -11.4860     8.1880   -27.9820 ha         1 A1A       0.122000
     17 H9         -12.1240    10.5970   -27.8980 ha         1 A1A       0.121000
     18 H10        -10.4900    12.2920   -27.0800 ha         1 A1A       0.122000
     19 H12         -3.9420     6.8890   -24.2970 hn         1 A1A       0.400500
     20 H3          -5.2600     9.1290   -22.9360 h1         1 A1A       0.056700
     21 H2          -3.7720    10.6240   -24.2410 hc         1 A1A       0.044033
     22 H           -2.8320     9.5870   -23.1500 hc         1 A1A       0.044033
     23 H1          -2.8950     9.2230   -24.8910 hc         1 A1A       0.044033
     24 H6          -7.4820     9.9220   -24.3270 h4         1 A1A       0.170000
     25 H11         -8.2210    11.5850   -26.3460 ha         1 A1A       0.132500
     26 H4          -5.1660     6.7790   -23.2630 hn         1 A1A       0.400500
@<TRIPOS>BOND
     1     1     3 1   
     2     1    12 1   
     3     1    13 1   
     4     2    11 1   
     5     2    12 2   
     6     3     4 ar  
     7     3    14 ar  
     8     4     5 ar  
     9     4    15 1   
    10     5     6 ar  
    11     5    16 1   
    12     6     7 ar  
    13     6    17 1   
    14     7    14 ar  
    15     7    18 1   
    16     8     9 1   
    17     8    19 1   
    18     8    26 1   
    19     9    10 1   
    20     9    11 1   
    21     9    20 1   
    22    10    21 1   
    23    10    22 1   
    24    10    23 1   
    25    11    13 2   
    26    13    24 1   
    27    14    25 1   
@<TRIPOS>SUBSTRUCTURE
     1 A1A         1 TEMP              0 ****  ****    0 ROOT
