@<TRIPOS>MOLECULE
A1A
   25    26     1     0     0
SMALL
No Charge or Current Charge


@<TRIPOS>ATOM
      1 N1          -5.6820     5.9050   -19.2010 nb         1 A1A      -0.750000
      2 C4          -9.6830     6.0850   -16.8950 c6         1 A1A      -0.198900
      3 C5          -6.2270     5.3390   -18.1110 ca         1 A1A       0.622900
      4 C6          -5.4550     4.7760   -17.0760 ca         1 A1A      -0.230000
      5 C7          -4.0560     4.8030   -17.1700 ca         1 A1A      -0.037000
      6 C8          -3.4900     5.3970   -18.3060 ca         1 A1A      -0.218000
      7 C          -10.4820     5.6460   -18.1160 c          1 A1A       0.577100
      8 C3          -8.3680     5.2950   -16.8000 c6         1 A1A       0.225800
      9 N           -7.6330     5.3590   -18.0880 nh         1 A1A      -0.787300
     10 C2          -8.3980     4.8260   -19.2480 c6         1 A1A       0.225800
     11 C1          -9.7080     5.6080   -19.4270 c6         1 A1A      -0.198900
     12 C9          -4.3350     5.9320   -19.2920 ca         1 A1A       0.386900
     13 H7         -10.2860     6.0190   -15.9820 hc         1 A1A       0.075950
     14 H6          -9.3820     7.1260   -17.0700 hc         1 A1A       0.075950
     15 H8          -5.9280     4.3140   -16.2170 ha         1 A1A       0.120000
     16 H9          -3.4310     4.3740   -16.3890 ha         1 A1A       0.114000
     17 H10         -2.4120     5.4450   -18.4300 ha         1 A1A       0.126000
     18 H4          -8.5820     4.2490   -16.5340 h1         1 A1A       0.053950
     19 H5          -7.7660     5.7270   -15.9860 h1         1 A1A       0.053950
     20 H3          -8.6250     3.7610   -19.0910 h1         1 A1A       0.053950
     21 H2          -7.8200     4.8950   -20.1820 h1         1 A1A       0.053950
     22 H          -10.3290     5.2160   -20.2420 hc         1 A1A       0.075950
     23 H1          -9.4030     6.6380   -19.6490 hc         1 A1A       0.075950
     24 H11         -3.9180     6.3970   -20.1840 h4         1 A1A       0.016100
     25 O          -11.6550     5.3020   -18.0390 o          1 A1A      -0.515100
@<TRIPOS>BOND
     1     1     3 ar  
     2     1    12 ar  
     3     2     7 1   
     4     2     8 1   
     5     2    13 1   
     6     2    14 1   
     7     3     4 ar  
     8     3     9 1   
     9     4     5 ar  
    10     4    15 1   
    11     5     6 ar  
    12     5    16 1   
    13     6    12 ar  
    14     6    17 1   
    15     7    11 1   
    16     7    25 2   
    17     8     9 1   
    18     8    18 1   
    19     8    19 1   
    20     9    10 1   
    21    10    11 1   
    22    10    20 1   
    23    10    21 1   
    24    11    22 1   
    25    11    23 1   
    26    12    24 1   
@<TRIPOS>SUBSTRUCTURE
     1 A1A         1 TEMP              0 ****  ****    0 ROOT
