@<TRIPOS>MOLECULE
A1A
   25    26     1     0     0
SMALL
abcg2


@<TRIPOS>ATOM
      1 N1          -5.6800     5.4470   -19.3190 nb         1 A1A      -0.750000
      2 C4          -9.6670     5.8490   -16.8490 c6         1 A1A      -0.198900
      3 C5          -6.2510     5.2780   -18.1260 ca         1 A1A       0.622900
      4 C6          -5.4630     5.1180   -16.9680 ca         1 A1A      -0.230000
      5 C7          -4.0900     5.1720   -17.0880 ca         1 A1A      -0.037000
      6 C8          -3.5020     5.3660   -18.3330 ca         1 A1A      -0.218000
      7 C          -10.4730     5.6950   -18.1100 c          1 A1A       0.577100
      8 C3          -8.3650     5.0430   -16.8750 c6         1 A1A       0.225800
      9 N           -7.6260     5.2890   -18.0940 nh         1 A1A      -0.787300
     10 C2          -8.3840     4.9930   -19.2950 c6         1 A1A       0.225800
     11 C1          -9.6590     5.8320   -19.3680 c6         1 A1A      -0.198900
     12 C9          -4.3580     5.4890   -19.4120 ca         1 A1A       0.386900
     13 H7         -10.2610     5.5670   -15.9790 hc         1 A1A       0.075950
     14 H6          -9.4170     6.9110   -16.7530 hc         1 A1A       0.075950
     15 H8          -5.8950     4.9390   -15.9960 ha         1 A1A       0.120000
     16 H9          -3.4770     5.0490   -16.2040 ha         1 A1A       0.114000
     17 H10         -2.4300     5.4090   -18.4630 ha         1 A1A       0.126000
     18 H4          -8.5900     3.9740   -16.7640 h1         1 A1A       0.053950
     19 H5          -7.7840     5.3400   -16.0070 h1         1 A1A       0.053950
     20 H3          -8.6490     3.9280   -19.3160 h1         1 A1A       0.053950
     21 H2          -7.7690     5.1900   -20.1670 h1         1 A1A       0.053950
     22 H          -10.2500     5.5430   -20.2380 hc         1 A1A       0.075950
     23 H1          -9.3870     6.8860   -19.4790 hc         1 A1A       0.075950
     24 H11         -3.9600     5.6280   -20.4120 h4         1 A1A       0.016100
     25 O          -11.6670     5.5000   -18.1100 o          1 A1A      -0.515100
@<TRIPOS>BOND
     1     1     3 ar  
     2     1    12 ar  
     3     2     7 1   
     4     2     8 1   
     5     2    13 1   
     6     2    14 1   
     7     3     4 ar  
     8     3     9 1   
     9     4     5 ar  
    10     4    15 1   
    11     5     6 ar  
    12     5    16 1   
    13     6    12 ar  
    14     6    17 1   
    15     7    11 1   
    16     7    25 2   
    17     8     9 1   
    18     8    18 1   
    19     8    19 1   
    20     9    10 1   
    21    10    11 1   
    22    10    20 1   
    23    10    21 1   
    24    11    22 1   
    25    11    23 1   
    26    12    24 1   
@<TRIPOS>SUBSTRUCTURE
     1 A1A         1 TEMP              0 ****  ****    0 ROOT
