@<TRIPOS>MOLECULE
A1A
   40    43     1     0     0
SMALL
No Charge or Current Charge


@<TRIPOS>ATOM
      1 N1          -0.6160    13.6090    -2.2420 nh         1 A1A      -0.758300
      2 N3          -0.5620    16.0860     1.1310 nb         1 A1A      -0.234000
      3 C4          -1.1230    10.7660    -5.5540 ca         1 A1A       0.141300
      4 C5          -0.6030    11.9060    -4.6620 c6         1 A1A      -0.101000
      5 C6          -1.6700    13.0120    -4.4300 c6         1 A1A      -0.100400
      6 C7          -1.1170    14.1480    -3.5360 c6         1 A1A       0.212800
      7 C8          -0.6190    14.4430    -1.1030 ca         1 A1A       0.438900
      8 C10         -1.7350    15.8220     0.5260 ca         1 A1A       0.141500
      9 C13         -1.7950    15.0110    -0.5790 ca         1 A1A      -0.242800
     10 C15         -0.0880    11.3960    -3.2880 c6         1 A1A      -0.100400
     11 C1          -0.9220     9.5730    -7.5120 ca         1 A1A       0.133300
     12 N5          -0.4720    10.5700    -6.7230 nb         1 A1A      -0.189000
     13 N           -2.1830    10.0560    -5.1010 nb         1 A1A      -0.177000
     14 C3          -2.6270     9.0600    -5.8940 ca         1 A1A       0.111900
     15 C2          -2.0160     8.7780    -7.1270 ca         1 A1A      -0.225000
     16 C14          0.4310    12.5580    -2.4050 c6         1 A1A       0.212800
     17 C12         -3.1700    14.8880    -0.9710 cc         1 A1A      -0.205200
     18 C11         -3.9060    15.6550    -0.0840 cd         1 A1A      -0.183100
     19 N4          -3.0160    16.2450     0.8480 na         1 A1A      -0.317400
     20 C9           0.5310    15.5040     0.5850 ca         1 A1A       0.179900
     21 N2           0.5630    14.6930    -0.5000 nb         1 A1A      -0.306000
     22 H6           0.2490    12.3780    -5.1730 hc         1 A1A       0.069700
     23 H7          -1.9950    13.4290    -5.3930 hc         1 A1A       0.061450
     24 H8          -2.5640    12.5860    -3.9550 hc         1 A1A       0.061450
     25 H10         -0.3020    14.6630    -4.0680 h1         1 A1A       0.063700
     26 H9          -1.9100    14.8930    -3.3750 h1         1 A1A       0.063700
     27 H16          0.7160    10.6620    -3.4360 hc         1 A1A       0.061450
     28 H17         -0.8920    10.8730    -2.7520 hc         1 A1A       0.061450
     29 H1           0.0660    10.2970    -9.3040 hc         1 A1A       0.057367
     30 H2           0.7370     8.7880    -8.6580 hc         1 A1A       0.057367
     31 H3          -0.8060     8.7750    -9.5280 hc         1 A1A       0.057367
     32 H5          -3.4780     8.4840    -5.5340 h4         1 A1A       0.024100
     33 H4          -2.3810     7.9710    -7.7580 ha         1 A1A       0.133000
     34 H14          1.3350    12.9900    -2.8610 h1         1 A1A       0.063700
     35 H15          0.7220    12.1470    -1.4260 h1         1 A1A       0.063700
     36 H13         -3.5770    14.2950    -1.7880 ha         1 A1A       0.202000
     37 H12         -4.9820    15.8170    -0.0420 h4         1 A1A       0.215000
     38 H           -3.2610    16.8570     1.6210 hn         1 A1A       0.361000
     39 H11          1.4850    15.7080     1.0690 h5         1 A1A       0.042100
     40 C           -0.1920     9.3460    -8.8220 c3         1 A1A      -0.153400
@<TRIPOS>BOND
     1     1     6 1   
     2     1     7 1   
     3     1    16 1   
     4     2     8 ar  
     5     2    20 ar  
     6     3     4 1   
     7     3    12 ar  
     8     3    13 ar  
     9     4     5 1   
    10     4    10 1   
    11     4    22 1   
    12     5     6 1   
    13     5    23 1   
    14     5    24 1   
    15     6    25 1   
    16     6    26 1   
    17     7     9 ar  
    18     7    21 ar  
    19     8     9 ar  
    20     8    19 1   
    21     9    17 1   
    22    10    16 1   
    23    10    27 1   
    24    10    28 1   
    25    11    12 ar  
    26    11    15 ar  
    27    11    40 1   
    28    13    14 ar  
    29    14    15 ar  
    30    14    32 1   
    31    15    33 1   
    32    16    34 1   
    33    16    35 1   
    34    17    18 2   
    35    17    36 1   
    36    18    19 1   
    37    18    37 1   
    38    19    38 1   
    39    20    21 ar  
    40    20    39 1   
    41    29    40 1   
    42    30    40 1   
    43    31    40 1   
@<TRIPOS>SUBSTRUCTURE
     1 A1A         1 TEMP              0 ****  ****    0 ROOT
