@<TRIPOS>MOLECULE
A1A
   28    29     1     0     0
SMALL
abcg2


@<TRIPOS>ATOM
      1 N1          -8.2120     4.8180   -17.7570 nb         1 A1A      -0.342000
      2 N3          -4.5720     7.1920   -19.6020 n7         1 A1A      -0.850400
      3 C4          -6.9620     4.9570   -17.2880 ca         1 A1A       0.426900
      4 C5          -4.6160     5.4130   -17.8490 c6         1 A1A       0.199300
      5 C6          -4.0560     6.7630   -18.3030 c6         1 A1A       0.138800
      6 C7          -5.1750     6.0950   -20.3320 c6         1 A1A       0.138800
      7 C8          -6.3620     5.4790   -19.5920 c6         1 A1A       0.199300
      8 C          -10.6810     4.5450   -18.6940 c3         1 A1A       0.159900
      9 O          -10.3970     4.3390   -17.3150 os         1 A1A      -0.454300
     10 C1          -9.1470     4.4840   -16.8980 ca         1 A1A       0.392300
     11 N           -6.5990     4.7750   -16.0150 nb         1 A1A      -0.275000
     12 C3          -7.5680     4.4360   -15.1740 ca         1 A1A       0.167900
     13 C2          -8.8840     4.2680   -15.5400 ca         1 A1A      -0.306000
     14 N2          -6.0200     5.3070   -18.1870 nh         1 A1A      -0.780300
     15 H14         -5.2690     7.9120   -19.4660 hn         1 A1A       0.412000
     16 H6          -4.4940     5.2970   -16.7770 h1         1 A1A       0.060200
     17 H5          -4.0630     4.5930   -18.3190 h1         1 A1A       0.060200
     18 H8          -4.2950     7.5270   -17.5610 h1         1 A1A       0.056700
     19 H7          -2.9650     6.6820   -18.3310 h1         1 A1A       0.056700
     20 H10         -5.5180     6.4460   -21.3060 h1         1 A1A       0.056700
     21 H11         -4.4100     5.3400   -20.5330 h1         1 A1A       0.056700
     22 H12         -7.2210     6.1480   -19.6770 h1         1 A1A       0.060200
     23 H13         -6.6510     4.5280   -20.0520 h1         1 A1A       0.060200
     24 H2         -11.7490     4.3770   -18.8030 h1         1 A1A       0.047367
     25 H1         -10.4410     5.5610   -19.0080 h1         1 A1A       0.047367
     26 H          -10.1380     3.8440   -19.3270 h1         1 A1A       0.047367
     27 H4          -7.2710     4.2880   -14.1400 h4         1 A1A       0.020100
     28 H3          -9.6530     3.9870   -14.8350 ha         1 A1A       0.146000
@<TRIPOS>BOND
     1     1     3 ar  
     2     1    10 ar  
     3     2     5 1   
     4     2     6 1   
     5     2    15 1   
     6     3    11 ar  
     7     3    14 1   
     8     4     5 1   
     9     4    14 1   
    10     4    16 1   
    11     4    17 1   
    12     5    18 1   
    13     5    19 1   
    14     6     7 1   
    15     6    20 1   
    16     6    21 1   
    17     7    14 1   
    18     7    22 1   
    19     7    23 1   
    20     8     9 1   
    21     8    24 1   
    22     8    25 1   
    23     8    26 1   
    24     9    10 1   
    25    10    13 ar  
    26    11    12 ar  
    27    12    13 ar  
    28    12    27 1   
    29    13    28 1   
@<TRIPOS>SUBSTRUCTURE
     1 A1A         1 TEMP              0 ****  ****    0 ROOT
