@<TRIPOS>MOLECULE
A1A
   29    30     1     0     0
SMALL
No Charge or Current Charge


@<TRIPOS>ATOM
      1 N1          -8.9390     6.6460   -17.9750 nb         1 A1A      -0.685000
      2 C4         -10.5210     4.8150   -17.9360 ca         1 A1A      -0.171000
      3 C5          -9.4760     3.8830   -17.9250 ca         1 A1A      -0.075000
      4 C6          -8.1580     4.3660   -17.9360 ca         1 A1A      -0.143000
      5 C7          -6.4090     7.6380   -17.1600 c5         1 A1A      -0.070900
      6 C8          -4.8980     7.8190   -16.8340 c5         1 A1A      -0.080900
      7 C10         -5.5700     5.4470   -16.9960 c5         1 A1A      -0.070900
      8 C           -5.8990     6.4400   -19.4300 c3         1 A1A       0.158800
      9 C1          -6.4460     6.3000   -17.9770 c5         1 A1A      -0.095300
     10 C9          -4.3390     6.3640   -16.7330 c5         1 A1A      -0.080900
     11 C2          -7.9030     5.7610   -17.9480 ca         1 A1A       0.384300
     12 C3         -10.2080     6.1810   -17.9640 ca         1 A1A       0.340900
     13 H5         -11.5580     4.4920   -17.9290 ha         1 A1A       0.120000
     14 H6          -9.6800     2.8140   -17.9140 ha         1 A1A       0.115000
     15 H7          -7.3380     3.6550   -17.9500 ha         1 A1A       0.122000
     16 H8          -6.8110     8.4900   -17.7210 hc         1 A1A       0.050200
     17 H9          -6.9900     7.5670   -16.2310 hc         1 A1A       0.050200
     18 H10         -4.3840     8.3800   -17.6230 hc         1 A1A       0.039950
     19 H11         -4.7530     8.3810   -15.9040 hc         1 A1A       0.039950
     20 H14         -5.2650     4.4790   -17.4090 hc         1 A1A       0.050200
     21 H15         -6.1000     5.2370   -16.0580 hc         1 A1A       0.050200
     22 H16         -5.4280     5.2990   -21.0720 hn         1 A1A       0.391000
     23 H1          -5.1070     4.5640   -19.6730 hn         1 A1A       0.391000
     24 H3          -4.8990     6.8950   -19.4230 h1         1 A1A       0.037200
     25 H2          -6.5670     7.1040   -19.9980 h1         1 A1A       0.037200
     26 H12         -3.5540     6.1970   -17.4780 hc         1 A1A       0.039950
     27 H13         -3.8900     6.1630   -15.7530 hc         1 A1A       0.039950
     28 H4         -10.9990     6.9300   -17.9810 h4         1 A1A       0.014100
     29 N           -5.8160     5.1450   -20.1340 n8         1 A1A      -0.998200
@<TRIPOS>BOND
     1     1    11 ar  
     2     1    12 ar  
     3     2     3 ar  
     4     2    12 ar  
     5     2    13 1   
     6     3     4 ar  
     7     3    14 1   
     8     4    11 ar  
     9     4    15 1   
    10     5     6 1   
    11     5     9 1   
    12     5    16 1   
    13     5    17 1   
    14     6    10 1   
    15     6    18 1   
    16     6    19 1   
    17     7     9 1   
    18     7    10 1   
    19     7    20 1   
    20     7    21 1   
    21     8     9 1   
    22     8    24 1   
    23     8    25 1   
    24     8    29 1   
    25     9    11 1   
    26    10    26 1   
    27    10    27 1   
    28    12    28 1   
    29    22    29 1   
    30    23    29 1   
@<TRIPOS>SUBSTRUCTURE
     1 A1A         1 TEMP              0 ****  ****    0 ROOT
