@<TRIPOS>MOLECULE
A1A
   24    24     1     0     0
SMALL
abcg2


@<TRIPOS>ATOM
      1 N1          -5.5530     7.6470   -16.8400 nt         1 A1A      -0.595000
      2 C4          -9.2200     4.7610   -16.3670 ca         1 A1A      -0.048000
      3 C5          -9.9770     4.6070   -17.5210 ca         1 A1A      -0.150000
      4 C6          -9.3450     4.6300   -18.7510 ca         1 A1A      -0.037000
      5 C7          -7.9650     4.8080   -18.8200 ca         1 A1A      -0.061000
      6 C8          -7.3130     4.8380   -20.0850 cg         1 A1A       0.337000
      7 O1          -4.9010     6.7630   -14.8630 o          1 A1A      -0.600100
      8 C9          -5.1710     6.6420   -16.0460 c          1 A1A       0.577100
      9 C1          -5.0230     5.2770   -16.7210 c3         1 A1A       0.084300
     10 C           -3.6010     5.1010   -17.2260 c3         1 A1A      -0.088100
     11 O           -5.8840     5.1260   -17.8410 os         1 A1A      -0.342100
     12 C2          -7.2020     4.9640   -17.6530 ca         1 A1A       0.172100
     13 N           -6.8090     4.8600   -21.1220 n1         1 A1A      -0.458000
     14 C3          -7.8450     4.9390   -16.4200 ca         1 A1A      -0.197000
     15 H9          -5.6150     8.5840   -16.4730 hn         1 A1A       0.322500
     16 H8          -5.7120     7.5290   -17.8270 hn         1 A1A       0.322500
     17 H5          -9.7050     4.7450   -15.4000 ha         1 A1A       0.120000
     18 H6         -11.0480     4.4700   -17.4620 ha         1 A1A       0.125000
     19 H7          -9.9120     4.5120   -19.6650 ha         1 A1A       0.128000
     20 H3          -5.2360     4.5090   -15.9700 h1         1 A1A       0.078700
     21 H2          -2.9030     5.2030   -16.3960 hc         1 A1A       0.058367
     22 H1          -3.4710     4.1100   -17.6570 hc         1 A1A       0.058367
     23 H           -3.3520     5.8500   -17.9780 hc         1 A1A       0.058367
     24 H4          -7.2980     5.0520   -15.4940 ha         1 A1A       0.134000
@<TRIPOS>BOND
     1     1     8 1   
     2     1    15 1   
     3     1    16 1   
     4     2     3 ar  
     5     2    14 ar  
     6     2    17 1   
     7     3     4 ar  
     8     3    18 1   
     9     4     5 ar  
    10     4    19 1   
    11     5     6 1   
    12     5    12 ar  
    13     6    13 3   
    14     7     8 2   
    15     8     9 1   
    16     9    10 1   
    17     9    11 1   
    18     9    20 1   
    19    10    21 1   
    20    10    22 1   
    21    10    23 1   
    22    11    12 1   
    23    12    14 ar  
    24    14    24 1   
@<TRIPOS>SUBSTRUCTURE
     1 A1A         1 TEMP              0 ****  ****    0 ROOT
