@<TRIPOS>MOLECULE
A1A
   38    40     1     0     0
SMALL
No Charge or Current Charge


@<TRIPOS>ATOM
      1 N1          -0.0920    12.6910     0.1240 nb         1 A1A      -0.224000
      2 N3          -2.8160    15.4820     1.4570 na         1 A1A      -0.317400
      3 C4          -0.4100    12.3550    -4.3020 c5         1 A1A      -0.190700
      4 C5           0.0700    12.3720    -2.8220 c          1 A1A       0.618100
      5 C6          -0.9170    13.3700    -0.7010 ca         1 A1A       0.304900
      6 C7          -0.1890    12.9790     1.4440 ca         1 A1A       0.167900
      7 C8          -1.8550    14.5300     1.1800 ca         1 A1A       0.147500
      8 C10         -2.8070    15.1460    -0.8070 cc         1 A1A      -0.106400
      9 O1           1.0830    11.8590    -2.3660 o          1 A1A      -0.510100
     10 C3          -0.4050    10.8980    -4.8700 c5         1 A1A      -0.096400
     11 C2           1.0020    10.7680    -5.5360 c5         1 A1A       0.157600
     12 O            1.6510    12.0440    -5.3350 os         1 A1A      -0.446000
     13 C1           0.6210    13.0350    -5.2360 c5         1 A1A       0.180300
     14 C            1.2110    14.3800    -4.7630 c3         1 A1A      -0.095100
     15 N           -0.8620    13.0700    -2.0770 ns         1 A1A      -0.330900
     16 C9          -1.8260    14.3050    -0.1730 ca         1 A1A      -0.239800
     17 C11         -3.1160    15.2380    -2.2800 c3         1 A1A      -0.022900
     18 C12         -3.4010    15.8580     0.2280 cd         1 A1A      -0.057300
     19 N2          -1.0330    13.8700     2.0180 nb         1 A1A      -0.214000
     20 H2          -3.0530    15.8400     2.3760 hn         1 A1A       0.363000
     21 H1          -1.3940    12.8290    -4.3970 hc         1 A1A       0.066700
     22 H11          0.4770    12.4370     2.1120 h5         1 A1A       0.053100
     23 H16         -4.7780    17.2640     1.1320 hc         1 A1A       0.051700
     24 H17         -4.1790    17.7470    -0.4640 hc         1 A1A       0.051700
     25 H15         -5.3960    16.4650    -0.3230 hc         1 A1A       0.051700
     26 H8          -1.1930    10.7610    -5.6190 hc         1 A1A       0.060200
     27 H9          -0.5710    10.1390    -4.0960 hc         1 A1A       0.060200
     28 H6           0.9180    10.5740    -6.6140 h1         1 A1A       0.052700
     29 H7           1.6120     9.9750    -5.0830 h1         1 A1A       0.052700
     30 H            0.1870    13.1820    -6.2360 h1         1 A1A       0.033700
     31 H3           0.4150    15.1120    -4.5810 hc         1 A1A       0.048700
     32 H5           1.7890    14.2710    -3.8380 hc         1 A1A       0.048700
     33 H4           1.8790    14.7990    -5.5250 hc         1 A1A       0.048700
     34 H10         -1.6350    13.4470    -2.6070 hn         1 A1A       0.155000
     35 H13         -3.4950    14.2810    -2.6590 hc         1 A1A       0.038367
     36 H14         -3.8750    16.0010    -2.4860 hc         1 A1A       0.038367
     37 H12         -2.2180    15.5020    -2.8520 hc         1 A1A       0.038367
     38 C13         -4.4970    16.8890     0.1410 c3         1 A1A      -0.039900
@<TRIPOS>BOND
     1     1     5 ar  
     2     1     6 ar  
     3     2     7 1   
     4     2    18 1   
     5     2    20 1   
     6     3     4 1   
     7     3    10 1   
     8     3    13 1   
     9     3    21 1   
    10     4     9 2   
    11     4    15 1   
    12     5    15 1   
    13     5    16 ar  
    14     6    19 ar  
    15     6    22 1   
    16     7    16 ar  
    17     7    19 ar  
    18     8    16 1   
    19     8    17 1   
    20     8    18 2   
    21    10    11 1   
    22    10    26 1   
    23    10    27 1   
    24    11    12 1   
    25    11    28 1   
    26    11    29 1   
    27    12    13 1   
    28    13    14 1   
    29    13    30 1   
    30    14    31 1   
    31    14    32 1   
    32    14    33 1   
    33    15    34 1   
    34    17    35 1   
    35    17    36 1   
    36    17    37 1   
    37    18    38 1   
    38    23    38 1   
    39    24    38 1   
    40    25    38 1   
@<TRIPOS>SUBSTRUCTURE
     1 A1A         1 TEMP              0 ****  ****    0 ROOT
