@<TRIPOS>MOLECULE
A1A
   24    24     1     0     0
SMALL
No Charge or Current Charge


@<TRIPOS>ATOM
      1 N1          -3.6150     4.8320   -17.0270 n8         1 A1A      -0.997200
      2 C4          -5.6040     6.0360   -17.9150 ca         1 A1A      -0.010300
      3 C5          -4.3750     6.0990   -17.0130 c3         1 A1A       0.192100
      4 C6          -5.5170     6.3280   -19.2850 ca         1 A1A      -0.201000
      5 C7          -6.6710     6.2520   -20.0770 ca         1 A1A       0.376900
      6 C3          -6.8650     5.6800   -17.4090 ca         1 A1A      -0.239000
      7 N2          -7.8810     5.9120   -19.5860 nb         1 A1A      -0.750000
      8 C2          -7.9770     5.6310   -18.2740 ca         1 A1A       0.616900
      9 N           -9.2710     5.2840   -17.8290 nh         1 A1A      -0.796300
     10 C1         -10.3750     4.9980   -18.7810 c3         1 A1A       0.227600
     11 C           -9.5920     5.2130   -16.3850 c3         1 A1A       0.227600
     12 H9          -2.8540     4.8930   -16.3400 hn         1 A1A       0.398000
     13 H13         -4.2160     4.0860   -16.6580 hn         1 A1A       0.398000
     14 H7          -3.7150     6.9120   -17.3450 h1         1 A1A       0.036700
     15 H8          -4.6860     6.3140   -15.9810 h1         1 A1A       0.036700
     16 H11         -4.5690     6.6050   -19.7360 ha         1 A1A       0.139000
     17 H12         -6.6250     6.4730   -21.1430 h4         1 A1A       0.012100
     18 H6          -6.9700     5.4390   -16.3570 ha         1 A1A       0.115000
     19 H3         -10.7020     5.9200   -19.2800 h1         1 A1A       0.036533
     20 H4         -10.0520     4.2750   -19.5420 h1         1 A1A       0.036533
     21 H5         -11.2420     4.5640   -18.2650 h1         1 A1A       0.036533
     22 H2          -9.2150     6.1020   -15.8620 h1         1 A1A       0.036533
     23 H1         -10.6770     5.1710   -16.2190 h1         1 A1A       0.036533
     24 H           -9.1420     4.3180   -15.9350 h1         1 A1A       0.036533
@<TRIPOS>BOND
     1     1     3 1   
     2     1    12 1   
     3     1    13 1   
     4     2     3 1   
     5     2     4 ar  
     6     2     6 ar  
     7     3    14 1   
     8     3    15 1   
     9     4     5 ar  
    10     4    16 1   
    11     5     7 ar  
    12     5    17 1   
    13     6     8 ar  
    14     6    18 1   
    15     7     8 ar  
    16     8     9 1   
    17     9    10 1   
    18     9    11 1   
    19    10    19 1   
    20    10    20 1   
    21    10    21 1   
    22    11    22 1   
    23    11    23 1   
    24    11    24 1   
@<TRIPOS>SUBSTRUCTURE
     1 A1A         1 TEMP              0 ****  ****    0 ROOT
