@<TRIPOS>MOLECULE
A1A
   20    21     1     0     0
SMALL
abcg2


@<TRIPOS>ATOM
      1 N1         -10.0560     4.8780   -16.7020 nb         1 A1A      -0.648000
      2 C4          -9.8240     4.9440   -19.0660 ca         1 A1A      -0.123000
      3 C5         -10.5700     4.7310   -17.9180 ca         1 A1A       0.288900
      4 C6          -8.7900     5.2420   -16.5600 ca         1 A1A       0.290300
      5 C7          -8.2610     5.4180   -15.1620 c6         1 A1A      -0.121700
      6 C           -6.7390     5.3500   -15.1190 c6         1 A1A      -0.087400
      7 C2          -7.9460     5.4730   -17.6650 ca         1 A1A       0.270000
      8 N           -6.6260     5.8010   -17.4940 nu         1 A1A      -0.951200
      9 C1          -6.1470     6.2360   -16.2010 c6         1 A1A       0.214800
     10 C3          -8.4990     5.3170   -18.9390 ca         1 A1A      -0.157000
     11 H6         -10.2710     4.8190   -20.0440 ha         1 A1A       0.119000
     12 H7         -11.6120     4.4360   -17.9770 h4         1 A1A       0.018100
     13 H8          -8.5910     6.3870   -14.7730 hc         1 A1A       0.060700
     14 H9          -8.7050     4.6620   -14.5100 hc         1 A1A       0.060700
     15 H           -6.4010     4.3220   -15.2700 hc         1 A1A       0.053700
     16 H1          -6.3730     5.6680   -14.1420 hc         1 A1A       0.053700
     17 H4          -6.1660     6.2050   -18.2940 hn         1 A1A       0.471000
     18 H2          -6.4090     7.2840   -15.9990 h1         1 A1A       0.036200
     19 H3          -5.0590     6.1700   -16.1990 h1         1 A1A       0.036200
     20 H5          -7.8860     5.4870   -19.8180 ha         1 A1A       0.114000
@<TRIPOS>BOND
     1     1     3 ar  
     2     1     4 ar  
     3     2     3 ar  
     4     2    10 ar  
     5     2    11 1   
     6     3    12 1   
     7     4     5 1   
     8     4     7 ar  
     9     5     6 1   
    10     5    13 1   
    11     5    14 1   
    12     6     9 1   
    13     6    15 1   
    14     6    16 1   
    15     7     8 1   
    16     7    10 ar  
    17     8     9 1   
    18     8    17 1   
    19     9    18 1   
    20     9    19 1   
    21    10    20 1   
@<TRIPOS>SUBSTRUCTURE
     1 A1A         1 TEMP              0 ****  ****    0 ROOT
