@<TRIPOS>MOLECULE
A1A
   28    29     1     0     0
SMALL
No Charge or Current Charge


@<TRIPOS>ATOM
      1 N1         -27.1880    -6.3280     0.2050 n7         1 A1A      -0.847400
      2 C4         -25.2420    -6.2100    -4.7680 ca         1 A1A      -0.120600
      3 C5         -25.6810    -6.7150    -6.0120 ca         1 A1A      -0.108000
      4 C6         -26.1970    -5.4010    -3.9140 c          1 A1A       0.611700
      5 C7         -25.7830    -6.8270    -1.8540 c6         1 A1A       0.058500
      6 C8         -25.8600    -6.7860    -0.3000 c6         1 A1A       0.131800
      7 C10        -26.8510    -4.5670    -1.6050 c6         1 A1A       0.058500
      8 O          -26.9700    -4.6100    -4.4410 o          1 A1A      -0.588100
      9 C3         -23.8940    -6.4130    -4.3910 ca         1 A1A      -0.101000
     10 C2         -23.0210    -7.1450    -5.2160 ca         1 A1A      -0.094000
     11 C1         -23.4800    -7.6690    -6.4360 ca         1 A1A      -0.135000
     12 C          -24.8070    -7.4460    -6.8320 ca         1 A1A       0.164000
     13 F          -25.2460    -7.9360    -8.0120 f          1 A1A      -0.175000
     14 N          -26.1160    -5.5150    -2.5040 n          1 A1A      -0.405800
     15 C9         -27.8430    -5.2990    -0.6570 c6         1 A1A       0.131800
     16 H8         -27.8230    -7.1350     0.2770 hn         1 A1A       0.413000
     17 H3         -26.7050    -6.5510    -6.3400 ha         1 A1A       0.147000
     18 H4         -26.4780    -7.5930    -2.2280 h1         1 A1A       0.059700
     19 H5         -24.7720    -7.1500    -2.1270 h1         1 A1A       0.059700
     20 H6         -25.6210    -7.7770     0.1160 h1         1 A1A       0.059700
     21 H7         -25.0850    -6.0930     0.0590 h1         1 A1A       0.059700
     22 H11        -27.4090    -3.8220    -2.1890 h1         1 A1A       0.059700
     23 H12        -26.1190    -4.0100    -1.0030 h1         1 A1A       0.059700
     24 H2         -23.5090    -5.9810    -3.4690 ha         1 A1A       0.124000
     25 H1         -21.9870    -7.2970    -4.9140 ha         1 A1A       0.121000
     26 H          -22.8090    -8.2330    -7.0790 ha         1 A1A       0.134000
     27 H9         -28.6040    -5.7900    -1.2820 h1         1 A1A       0.059700
     28 H10        -28.3690    -4.5670    -0.0260 h1         1 A1A       0.059700
@<TRIPOS>BOND
     1     1     6 1   
     2     1    15 1   
     3     1    16 1   
     4     2     3 ar  
     5     2     4 1   
     6     2     9 ar  
     7     3    12 ar  
     8     3    17 1   
     9     4     8 2   
    10     4    14 1   
    11     5     6 1   
    12     5    14 1   
    13     5    18 1   
    14     5    19 1   
    15     6    20 1   
    16     6    21 1   
    17     7    14 1   
    18     7    15 1   
    19     7    22 1   
    20     7    23 1   
    21     9    10 ar  
    22     9    24 1   
    23    10    11 ar  
    24    10    25 1   
    25    11    12 ar  
    26    11    26 1   
    27    12    13 1   
    28    15    27 1   
    29    15    28 1   
@<TRIPOS>SUBSTRUCTURE
     1 A1A         1 TEMP              0 ****  ****    0 ROOT
