@<TRIPOS>MOLECULE
A1A
   17    18     1     0     0
SMALL
abcg2


@<TRIPOS>ATOM
      1 N1          -4.6300     5.0690   -19.8650 nc         1 A1A      -0.413000
      2 N3          -5.4230     5.5830   -17.9010 na         1 A1A      -0.532000
      3 C4         -10.1570     5.0780   -18.5170 cc         1 A1A      -0.133000
      4 C5         -10.0170     5.1240   -17.1630 cd         1 A1A      -0.227000
      5 N           -3.0530     5.7180   -18.1980 nv         1 A1A      -1.025900
      6 C           -4.3100     5.4840   -18.6660 cd         1 A1A       0.610400
      7 C1          -6.4510     5.2050   -18.7160 cd         1 A1A       0.464000
      8 N2          -5.9790     4.8870   -19.8860 nc         1 A1A      -0.330000
      9 C2          -7.8470     5.1760   -18.3440 cd         1 A1A      -0.260500
     10 S           -8.3710     5.1950   -16.7010 ss         1 A1A       0.185000
     11 C3          -8.9150     5.1090   -19.1970 cc         1 A1A      -0.081000
     12 H2          -5.4690     5.9070   -16.9460 hn         1 A1A       0.361000
     13 H5         -10.7900     5.1230   -16.4100 h4         1 A1A       0.153000
     14 H1          -2.3630     5.8250   -18.9240 hn         1 A1A       0.466500
     15 H           -2.9710     6.4310   -17.4890 hn         1 A1A       0.466500
     16 H3          -8.8090     5.0920   -20.2720 ha         1 A1A       0.156000
     17 H4         -11.1150     5.0310   -19.0150 ha         1 A1A       0.140000
@<TRIPOS>BOND
     1     1     6 2   
     2     1     8 1   
     3     2     6 1   
     4     2     7 1   
     5     2    12 1   
     6     3     4 2   
     7     3    11 1   
     8     3    17 1   
     9     4    10 1   
    10     4    13 1   
    11     5     6 1   
    12     5    14 1   
    13     5    15 1   
    14     7     8 2   
    15     7     9 1   
    16     9    10 1   
    17     9    11 2   
    18    11    16 1   
@<TRIPOS>SUBSTRUCTURE
     1 A1A         1 TEMP              0 ****  ****    0 ROOT
