@<TRIPOS>MOLECULE
A1A
   31    32     1     0     0
SMALL
abcg2


@<TRIPOS>ATOM
      1 N1         -14.9610   -12.2490    -6.4890 n7         1 A1A      -0.868400
      2 C4         -11.4910    -9.6690   -10.1320 ca         1 A1A      -0.152000
      3 C5         -10.1910   -10.1200   -10.2180 ca         1 A1A       0.174000
      4 C6          -9.7910   -11.2930    -9.6110 ca         1 A1A      -0.152000
      5 C7         -10.7300   -12.0300    -8.9020 ca         1 A1A      -0.075000
      6 C8         -14.2610   -11.5520    -7.5440 c6         1 A1A       0.171800
      7 C10        -12.7110   -12.4950    -5.5840 c6         1 A1A      -0.080400
      8 F           -9.2990    -9.4000   -10.9160 f          1 A1A      -0.178000
      9 C3         -12.4120   -10.4210    -9.4180 ca         1 A1A      -0.075000
     10 C2         -12.0540   -11.6100    -8.7780 ca         1 A1A      -0.093300
     11 C1         -13.1230   -12.4510    -8.0790 c6         1 A1A      -0.069700
     12 C          -13.6650   -13.3520    -9.2100 c          1 A1A       0.622100
     13 N          -13.0640   -14.5430    -9.3540 nt         1 A1A      -0.607000
     14 O          -14.5450   -12.9750    -9.9670 o          1 A1A      -0.606100
     15 C11        -12.5920   -13.2790    -6.8830 c6         1 A1A      -0.059400
     16 C9         -14.1870   -12.2480    -5.2540 c6         1 A1A       0.157800
     17 H15        -15.8680   -11.8320    -6.3360 hn         1 A1A       0.422000
     18 H3         -11.7870    -8.7480   -10.6170 ha         1 A1A       0.132000
     19 H4          -8.7680   -11.6370    -9.6910 ha         1 A1A       0.132000
     20 H5         -10.3990   -12.9540    -8.4480 ha         1 A1A       0.117500
     21 H7         -13.8350   -10.5950    -7.2060 h1         1 A1A       0.048700
     22 H6         -14.9620   -11.3150    -8.3420 h1         1 A1A       0.048700
     23 H12        -12.1700   -11.5490    -5.6760 hc         1 A1A       0.045200
     24 H11        -12.2320   -13.0410    -4.7710 hc         1 A1A       0.045200
     25 H2         -13.4280   -10.0550    -9.3720 ha         1 A1A       0.117500
     26 H1         -13.3160   -15.1380   -10.1260 hn         1 A1A       0.312500
     27 H          -12.3270   -14.8650    -8.7510 hn         1 A1A       0.312500
     28 H14        -11.5600   -13.6000    -7.0290 hc         1 A1A       0.046700
     29 H13        -13.1780   -14.1950    -6.7850 hc         1 A1A       0.046700
     30 H10        -14.2830   -11.3060    -4.6950 h1         1 A1A       0.032200
     31 H9         -14.5630   -13.0420    -4.6040 h1         1 A1A       0.032200
@<TRIPOS>BOND
     1     1     6 1   
     2     1    16 1   
     3     1    17 1   
     4     2     3 ar  
     5     2     9 ar  
     6     2    18 1   
     7     3     4 ar  
     8     3     8 1   
     9     4     5 ar  
    10     4    19 1   
    11     5    10 ar  
    12     5    20 1   
    13     6    11 1   
    14     6    21 1   
    15     6    22 1   
    16     7    15 1   
    17     7    16 1   
    18     7    23 1   
    19     7    24 1   
    20     9    10 ar  
    21     9    25 1   
    22    10    11 1   
    23    11    12 1   
    24    11    15 1   
    25    12    13 1   
    26    12    14 2   
    27    13    26 1   
    28    13    27 1   
    29    15    28 1   
    30    15    29 1   
    31    16    30 1   
    32    16    31 1   
@<TRIPOS>SUBSTRUCTURE
     1 A1A         1 TEMP              0 ****  ****    0 ROOT
