@<TRIPOS>MOLECULE
A1A
   23    23     1     0     0
SMALL
abcg2


@<TRIPOS>ATOM
      1 CDN         -7.3990    14.1220   -28.1110 c3         1 A1A       0.151900
      2 CDR         -7.9530    13.6390   -25.8390 ca         1 A1A       0.210100
      3 CDU         -7.3850    14.8420   -25.4090 ca         1 A1A      -0.233000
      4 CDX         -7.3630    15.1650   -24.0670 ca         1 A1A       0.025000
      5 CDZ         -7.9060    14.2860   -23.1420 ca         1 A1A      -0.197500
      6 CEB         -8.4520    13.0860   -23.5530 ca         1 A1A       0.048000
      7 CED         -8.5060    12.7450   -24.8990 ca         1 A1A      -0.206600
      8 CEE         -9.1340    11.4120   -25.2060 c          1 A1A       0.623700
      9 NDO         -9.5720    11.1880   -26.4510 nt         1 A1A      -0.597000
     10 ODP         -7.9780    13.2800   -27.1250 os         1 A1A      -0.358100
     11 ODT         -8.9820    15.8280   -21.3450 oh         1 A1A      -0.618800
     12 ODW         -8.2550    13.4680   -20.6850 o          1 A1A      -0.531000
     13 ODY         -9.2630    10.5850   -24.3120 o          1 A1A      -0.611100
     14 SDQ         -7.8070    14.6870   -21.4020 sx         1 A1A       0.614300
     15 H1          -7.5330    13.6100   -29.0590 h1         1 A1A       0.048700
     16 H2          -7.8980    15.0920   -28.1550 h1         1 A1A       0.048700
     17 H3          -6.3320    14.2700   -27.9330 h1         1 A1A       0.048700
     18 H4          -6.9500    15.5340   -26.1160 ha         1 A1A       0.121000
     19 H5          -6.9180    16.1020   -23.7540 ha         1 A1A       0.119000
     20 H6          -8.8470    12.3930   -22.8220 ha         1 A1A       0.170000
     21 H7         -10.0040    10.3040   -26.6640 hn         1 A1A       0.321000
     22 H8          -9.4530    11.8490   -27.1980 hn         1 A1A       0.321000
     23 H9          -9.8140    15.5190   -21.7430 ho         1 A1A       0.483000
@<TRIPOS>BOND
     1     1    10 1   
     2     1    15 1   
     3     1    16 1   
     4     1    17 1   
     5     2     3 ar  
     6     2     7 ar  
     7     2    10 1   
     8     3     4 ar  
     9     3    18 1   
    10     4     5 ar  
    11     4    19 1   
    12     5     6 ar  
    13     5    14 1   
    14     6     7 ar  
    15     6    20 1   
    16     7     8 1   
    17     8     9 1   
    18     8    13 2   
    19     9    21 1   
    20     9    22 1   
    21    11    14 1   
    22    11    23 1   
    23    12    14 2   
@<TRIPOS>SUBSTRUCTURE
     1 A1A         1 TEMP              0 ****  ****    0 ROOT
