@<TRIPOS>MOLECULE
A1A
   20    21     1     0     0
SMALL
No Charge or Current Charge


@<TRIPOS>ATOM
      1 N1         -10.1180     4.8670   -16.6780 nb         1 A1A      -0.648000
      2 C4          -9.8500     4.9500   -19.0920 ca         1 A1A      -0.123000
      3 C5         -10.6180     4.7310   -17.9300 ca         1 A1A       0.288900
      4 C6          -8.8130     5.2290   -16.5660 ca         1 A1A       0.290300
      5 C7          -8.2750     5.3940   -15.1380 c6         1 A1A      -0.121700
      6 C           -6.7190     5.3720   -15.0950 c6         1 A1A      -0.087400
      7 C2          -7.9610     5.4750   -17.6840 ca         1 A1A       0.270000
      8 N           -6.6150     5.8460   -17.5060 nu         1 A1A      -0.951200
      9 C1          -6.0990     6.2740   -16.1940 c6         1 A1A       0.214800
     10 C3          -8.4990     5.3290   -18.9720 ca         1 A1A      -0.157000
     11 H6         -10.3050     4.8260   -20.0710 ha         1 A1A       0.119000
     12 H7         -11.6640     4.4380   -18.0050 h4         1 A1A       0.018100
     13 H8          -8.6380     6.3480   -14.7330 hc         1 A1A       0.060700
     14 H9          -8.6740     4.6050   -14.4860 hc         1 A1A       0.060700
     15 H           -6.3620     4.3420   -15.2320 hc         1 A1A       0.053700
     16 H1          -6.3650     5.6930   -14.1050 hc         1 A1A       0.053700
     17 H4          -6.0800     6.0730   -18.3490 hn         1 A1A       0.471000
     18 H2          -6.3840     7.3190   -15.9980 h1         1 A1A       0.036200
     19 H3          -5.0010     6.2160   -16.1640 h1         1 A1A       0.036200
     20 H5          -7.8900     5.5020   -19.8550 ha         1 A1A       0.114000
@<TRIPOS>BOND
     1     1     3 ar  
     2     1     4 ar  
     3     2     3 ar  
     4     2    10 ar  
     5     2    11 1   
     6     3    12 1   
     7     4     5 1   
     8     4     7 ar  
     9     5     6 1   
    10     5    13 1   
    11     5    14 1   
    12     6     9 1   
    13     6    15 1   
    14     6    16 1   
    15     7     8 1   
    16     7    10 ar  
    17     8     9 1   
    18     8    17 1   
    19     9    18 1   
    20     9    19 1   
    21    10    20 1   
@<TRIPOS>SUBSTRUCTURE
     1 A1A         1 TEMP              0 ****  ****    0 ROOT
