@<TRIPOS>MOLECULE
A1A
   32    35     1     0     0
SMALL
abcg2


@<TRIPOS>ATOM
      1 N1          -1.0600    15.1950    -2.2880 nh         1 A1A      -0.776300
      2 N3          -2.3550    11.5200    -5.6700 nc         1 A1A      -0.695000
      3 C4          -1.6700    14.8470    -4.5300 c5         1 A1A       0.082300
      4 C5          -2.4080    12.8260    -5.8120 cd         1 A1A       0.406400
      5 C6          -1.7230    11.3760    -4.4870 cc         1 A1A       0.516900
      6 C7          -2.2130    15.2600    -3.1640 c5         1 A1A       0.224800
      7 C8          -2.3100    15.3350    -0.1980 ca         1 A1A      -0.251800
      8 C10         -4.2890    15.6630     0.8000 cc         1 A1A      -0.182100
      9 C9          -3.6960    15.6180    -0.4250 cd         1 A1A      -0.207200
     10 N5          -3.3520    15.4260     1.7720 na         1 A1A      -0.317400
     11 C11         -2.1450    15.2320     1.1940 ca         1 A1A       0.146500
     12 N6          -1.0020    15.0000     1.8450 nb         1 A1A      -0.235000
     13 C            0.0240    14.8770     1.0290 ca         1 A1A       0.181900
     14 C1          -1.1210    15.1570    -0.9480 ca         1 A1A       0.446900
     15 N            0.0290    14.9410    -0.2980 nb         1 A1A      -0.303000
     16 C3          -0.2040    15.2670    -4.4640 c5         1 A1A      -0.107400
     17 C2           0.1970    15.0480    -3.0100 c5         1 A1A       0.240800
     18 N2          -1.8340    13.4260    -4.7660 na         1 A1A      -0.066700
     19 N4          -1.3910    12.5050    -3.9070 nd         1 A1A      -0.528800
     20 H6          -2.2050    15.3490    -5.3350 h1         1 A1A       0.074700
     21 H7          -2.8420    13.3700    -6.6370 h5         1 A1A       0.061100
     22 H8          -1.5020    10.4180    -4.0420 h5         1 A1A       0.066100
     23 H9          -2.6170    16.2750    -3.2240 h1         1 A1A       0.064200
     24 H10         -3.0140    14.5980    -2.8350 h1         1 A1A       0.064200
     25 H11         -4.2050    15.7800    -1.3600 ha         1 A1A       0.198000
     26 H           -3.5280    15.4060     2.7640 hn         1 A1A       0.361000
     27 H1           0.9900    14.6970     1.4920 h5         1 A1A       0.043100
     28 H4          -0.1430    16.3260    -4.7190 hc         1 A1A       0.066700
     29 H5           0.4250    14.7210    -5.1650 hc         1 A1A       0.066700
     30 H2           0.9320    15.7790    -2.6750 h1         1 A1A       0.071200
     31 H3           0.6210    14.0550    -2.8510 h1         1 A1A       0.071200
     32 H12         -5.3180    15.8480     1.0620 h4         1 A1A       0.215000
@<TRIPOS>BOND
     1     1     6 1   
     2     1    14 1   
     3     1    17 1   
     4     2     4 2   
     5     2     5 1   
     6     3     6 1   
     7     3    16 1   
     8     3    18 1   
     9     3    20 1   
    10     4    18 1   
    11     4    21 1   
    12     5    19 2   
    13     5    22 1   
    14     6    23 1   
    15     6    24 1   
    16     7     9 1   
    17     7    11 ar  
    18     7    14 ar  
    19     8     9 2   
    20     8    10 1   
    21     8    32 1   
    22     9    25 1   
    23    10    11 1   
    24    10    26 1   
    25    11    12 ar  
    26    12    13 ar  
    27    13    15 ar  
    28    13    27 1   
    29    14    15 ar  
    30    16    17 1   
    31    16    28 1   
    32    16    29 1   
    33    17    30 1   
    34    17    31 1   
    35    18    19 1   
@<TRIPOS>SUBSTRUCTURE
     1 A1A         1 TEMP              0 ****  ****    0 ROOT
