@<TRIPOS>MOLECULE
A1A
   32    33     1     0     0
SMALL
abcg2


@<TRIPOS>ATOM
      1 N1          -0.2760    13.8160    -0.1010 nb         1 A1A      -0.286000
      2 N3          -3.3880    15.9930     1.1640 na         1 A1A      -0.315400
      3 C4          -0.9960    14.5330    -0.9630 ca         1 A1A       0.424900
      4 C5          -0.6110    13.8470     1.1910 ca         1 A1A       0.180900
      5 C6          -2.3140    15.2180     0.8840 ca         1 A1A       0.146500
      6 C7          -3.8530    16.5590     0.0040 cc         1 A1A      -0.176100
      7 C8          -3.0800    16.1550    -1.0450 cd         1 A1A      -0.211200
      8 C10          0.2140    12.2280    -2.6480 c          1 A1A       0.605100
      9 O            1.1090    11.4580    -2.3390 o          1 A1A      -0.593100
     10 N4          -1.0270    11.8310    -2.9630 nt         1 A1A      -0.605000
     11 C3           0.4650    13.7360    -2.7650 c3         1 A1A       0.161500
     12 C1           0.7580    14.1550    -4.2170 c3         1 A1A      -0.067700
     13 C2           1.1980    15.6170    -4.2650 c3         1 A1A      -0.090600
     14 C            1.8210    13.2750    -4.8650 c3         1 A1A      -0.090600
     15 N           -0.6470    14.5060    -2.2620 nu         1 A1A      -0.938100
     16 C9          -2.0860    15.2920    -0.4940 ca         1 A1A      -0.260800
     17 N2          -1.5960    14.5070     1.7600 nb         1 A1A      -0.227000
     18 H           -3.7830    16.1310     2.0800 hn         1 A1A       0.363000
     19 H10          0.0120    13.2480     1.8470 h5         1 A1A       0.049100
     20 H11         -4.7080    17.2140     0.0200 h4         1 A1A       0.217000
     21 H12         -3.2130    16.4430    -2.0760 ha         1 A1A       0.200000
     22 H14         -1.2810    10.8580    -2.9010 hn         1 A1A       0.311000
     23 H13         -1.7640    12.4900    -3.1480 hn         1 A1A       0.311000
     24 H8           1.3550    13.9400    -2.1640 h1         1 A1A       0.102700
     25 H4          -0.1690    14.0510    -4.7930 hc         1 A1A       0.041700
     26 H5           0.4490    16.3010    -3.8670 hc         1 A1A       0.041367
     27 H6           2.1180    15.7610    -3.6930 hc         1 A1A       0.041367
     28 H7           1.3970    15.9180    -5.2940 hc         1 A1A       0.041367
     29 H2           1.5000    12.2410    -4.9840 hc         1 A1A       0.041367
     30 H3           2.0550    13.6550    -5.8600 hc         1 A1A       0.041367
     31 H1           2.7460    13.2780    -4.2850 hc         1 A1A       0.041367
     32 H9          -1.2090    15.0280    -2.9160 hn         1 A1A       0.499000
@<TRIPOS>BOND
     1     1     3 ar  
     2     1     4 ar  
     3     2     5 1   
     4     2     6 1   
     5     2    18 1   
     6     3    15 1   
     7     3    16 ar  
     8     4    17 ar  
     9     4    19 1   
    10     5    16 ar  
    11     5    17 ar  
    12     6     7 2   
    13     6    20 1   
    14     7    16 1   
    15     7    21 1   
    16     8     9 2   
    17     8    10 1   
    18     8    11 1   
    19    10    22 1   
    20    10    23 1   
    21    11    12 1   
    22    11    15 1   
    23    11    24 1   
    24    12    13 1   
    25    12    14 1   
    26    12    25 1   
    27    13    26 1   
    28    13    27 1   
    29    13    28 1   
    30    14    29 1   
    31    14    30 1   
    32    14    31 1   
    33    15    32 1   
@<TRIPOS>SUBSTRUCTURE
     1 A1A         1 TEMP              0 ****  ****    0 ROOT
