@<TRIPOS>MOLECULE
A1A
   29    30     1     0     0
SMALL
abcg2


@<TRIPOS>ATOM
      1 N1          -5.5360     5.6280   -17.4390 n3         1 A1A      -0.742600
      2 C4          -7.1590     6.3800   -15.7820 c6         1 A1A      -0.000100
      3 C5          -8.1740     5.7760   -16.6920 cc         1 A1A      -0.195300
      4 C6         -10.1710     4.9020   -17.8640 cc         1 A1A      -0.237000
      5 C7          -9.0400     4.8030   -18.6120 cd         1 A1A      -0.120000
      6 C8          -7.8880     5.3020   -17.9360 cd         1 A1A      -0.111300
      7 C2          -3.1820     5.3490   -16.7990 c3         1 A1A       0.158800
      8 C1          -4.1600     5.6700   -17.9270 c3         1 A1A       0.185500
      9 C           -3.7690     6.9690   -18.6320 c3         1 A1A      -0.124100
     10 C9          -6.4970     5.3410   -18.4860 c6         1 A1A       0.246100
     11 S           -9.8500     5.6080   -16.3300 ss         1 A1A       0.184000
     12 C3          -5.9400     6.7550   -16.6180 c6         1 A1A       0.176800
     13 H11         -6.8710     5.6730   -14.9990 hc         1 A1A       0.054200
     14 H10         -7.5510     7.2670   -15.2790 hc         1 A1A       0.054200
     15 H12        -11.1720     4.5980   -18.1270 h4         1 A1A       0.149000
     16 H13         -9.0230     4.3870   -19.6110 ha         1 A1A       0.132000
     17 H6          -2.9010     3.9150   -15.3900 hn         1 A1A       0.400000
     18 H17         -4.4420     4.0920   -15.8590 hn         1 A1A       0.400000
     19 H5          -3.1670     6.1820   -16.0800 h1         1 A1A       0.023700
     20 H3          -4.0770     4.8510   -18.6490 h1         1 A1A       0.069700
     21 H           -4.4710     7.2250   -19.4260 hc         1 A1A       0.038033
     22 H2          -3.7290     7.8100   -17.9370 hc         1 A1A       0.038033
     23 H1          -2.7820     6.8730   -19.0860 hc         1 A1A       0.038033
     24 H15         -6.2490     4.3730   -18.9310 h1         1 A1A       0.041700
     25 H14         -6.4630     6.0730   -19.3120 h1         1 A1A       0.041700
     26 H9          -5.1220     7.0310   -15.9520 h1         1 A1A       0.033700
     27 H8          -6.1780     7.6490   -17.2160 h1         1 A1A       0.033700
     28 H4          -2.1780     5.3110   -17.2310 h1         1 A1A       0.023700
     29 N           -3.4890     4.0620   -16.2000 n8         1 A1A      -0.994200
@<TRIPOS>BOND
     1     1     8 1   
     2     1    10 1   
     3     1    12 1   
     4     2     3 1   
     5     2    12 1   
     6     2    13 1   
     7     2    14 1   
     8     3     6 2   
     9     3    11 1   
    10     4     5 2   
    11     4    11 1   
    12     4    15 1   
    13     5     6 1   
    14     5    16 1   
    15     6    10 1   
    16     7     8 1   
    17     7    19 1   
    18     7    28 1   
    19     7    29 1   
    20     8     9 1   
    21     8    20 1   
    22     9    21 1   
    23     9    22 1   
    24     9    23 1   
    25    10    24 1   
    26    10    25 1   
    27    12    26 1   
    28    12    27 1   
    29    17    29 1   
    30    18    29 1   
@<TRIPOS>SUBSTRUCTURE
     1 A1A         1 TEMP              0 ****  ****    0 ROOT
