@<TRIPOS>MOLECULE
A1A
   25    24     1     0     0
SMALL
abcg2


@<TRIPOS>ATOM
      1 CEK        -12.8030     3.5860   -19.0060 c3         1 A1A       0.162600
      2 CEL        -13.9860     2.6590   -18.8100 c3         1 A1A      -0.073400
      3 CEM        -13.7140     1.2130   -19.2330 c3         1 A1A      -0.040200
      4 CEN        -14.9290     0.3560   -19.0680 c2         1 A1A      -0.220200
      5 CEO        -15.0820    -0.6670   -18.2270 c2         1 A1A      -0.212200
      6 CEP        -14.0630    -1.1910   -17.2610 c3         1 A1A      -0.045200
      7 CEQ        -14.2320    -0.6040   -15.8570 c3         1 A1A      -0.072400
      8 CER        -13.2290    -1.1730   -14.8640 c3         1 A1A      -0.089100
      9 O1         -11.7410     3.1680   -18.1740 oh         1 A1A      -0.662000
     10 H1         -12.5110     3.5780   -20.0650 h1         1 A1A       0.015700
     11 H2         -13.1110     4.6130   -18.7710 h1         1 A1A       0.015700
     12 H3         -14.3030     2.6850   -17.7630 hc         1 A1A       0.046700
     13 H4         -14.8220     3.0580   -19.3930 hc         1 A1A       0.046700
     14 H5         -13.4100     1.2130   -20.2850 hc         1 A1A       0.050200
     15 H6         -12.8710     0.8150   -18.6660 hc         1 A1A       0.050200
     16 H7         -15.7780     0.6320   -19.6880 ha         1 A1A       0.161000
     17 H8         -16.0490    -1.1610   -18.2050 ha         1 A1A       0.164000
     18 H9         -14.1510    -2.2800   -17.2010 hc         1 A1A       0.043200
     19 H10        -13.0480    -0.9860   -17.6110 hc         1 A1A       0.043200
     20 H11        -14.1230     0.4830   -15.9140 hc         1 A1A       0.039700
     21 H12        -15.2500    -0.7890   -15.5040 hc         1 A1A       0.039700
     22 H13        -13.3580    -0.7380   -13.8730 hc         1 A1A       0.031367
     23 H14        -13.3410    -2.2550   -14.7670 hc         1 A1A       0.031367
     24 H15        -12.2040    -0.9760   -15.1820 hc         1 A1A       0.031367
     25 H16        -10.9830     3.7350   -18.3460 ho         1 A1A       0.440000
@<TRIPOS>BOND
     1     1     2 1   
     2     1     9 1   
     3     1    10 1   
     4     1    11 1   
     5     2     3 1   
     6     2    12 1   
     7     2    13 1   
     8     3     4 1   
     9     3    14 1   
    10     3    15 1   
    11     4     5 2   
    12     4    16 1   
    13     5     6 1   
    14     5    17 1   
    15     6     7 1   
    16     6    18 1   
    17     6    19 1   
    18     7     8 1   
    19     7    20 1   
    20     7    21 1   
    21     8    22 1   
    22     8    23 1   
    23     8    24 1   
    24     9    25 1   
@<TRIPOS>SUBSTRUCTURE
     1 A1A         1 TEMP              0 ****  ****    0 ROOT
