@<TRIPOS>MOLECULE
A1A
   36    38     1     0     0
SMALL
abcg2


@<TRIPOS>ATOM
      1 N1          -3.5710    15.5050    -3.7280 nb         1 A1A      -0.192000
      2 N3          -4.3560    15.1390     0.1820 na         1 A1A      -0.332400
      3 C4           1.4160    12.6860    -5.2140 c3         1 A1A      -0.067400
      4 C5           1.3510    14.2110    -5.1770 c3         1 A1A      -0.086400
      5 C6           1.0080    14.7750    -3.8020 c3         1 A1A       0.096000
      6 C7          -1.1900    15.6290    -3.3340 c          1 A1A       0.503600
      7 C8          -2.5950    15.4170    -2.8350 ca         1 A1A       0.152500
      8 C10         -4.2530    15.2660    -1.1600 ca         1 A1A       0.113500
      9 C13         -2.8780    15.2850    -1.4810 ca         1 A1A      -0.166800
     10 O2          -0.8850    16.7780    -3.6280 o          1 A1A      -0.640100
     11 C12         -2.1550    15.1490    -0.2600 cc         1 A1A      -0.159200
     12 C11         -3.0960    15.0660     0.7220 cd         1 A1A      -0.188100
     13 N2          -5.2400    15.3500    -2.0390 nb         1 A1A      -0.211000
     14 C9          -4.8310    15.4590    -3.2890 ca         1 A1A       0.124900
     15 N           -0.3680    14.5710    -3.3800 n          1 A1A      -0.330800
     16 C1          -0.8560    13.2020    -3.2290 c3         1 A1A      -0.038300
     17 C           -0.0460    12.3660    -2.2020 c          1 A1A       0.724000
     18 O1          -0.1330    11.1330    -2.3370 o          1 A1A      -0.720000
     19 O            0.5430    12.9900    -1.3000 o          1 A1A      -0.720000
     20 C3           0.0760    11.9700    -5.3690 c3         1 A1A      -0.048400
     21 C2          -1.1120    12.5420    -4.5870 c3         1 A1A      -0.055400
     22 H           -5.2190    15.0940     0.7020 hn         1 A1A       0.349000
     23 H10          2.3340    14.6120    -5.4350 hc         1 A1A       0.028700
     24 H9           0.6580    14.5960    -5.9320 hc         1 A1A       0.028700
     25 H12          1.6600    14.3200    -3.0560 h1         1 A1A       0.064700
     26 H11          1.2040    15.8440    -3.7880 h1         1 A1A       0.064700
     27 H15         -1.0870    15.0980    -0.1300 ha         1 A1A       0.247000
     28 H14         -2.9690    14.9540     1.7870 h4         1 A1A       0.209000
     29 H13         -5.6020    15.5230    -4.0480 h5         1 A1A       0.035100
     30 H2          -1.8420    13.2750    -2.7620 h1         1 A1A       0.040700
     31 H6           0.2200    10.9240    -5.0990 hc         1 A1A       0.025200
     32 H5          -0.2020    11.9700    -6.4270 hc         1 A1A       0.025200
     33 H4          -1.8390    11.7420    -4.4370 hc         1 A1A       0.027200
     34 H3          -1.6290    13.2840    -5.2030 hc         1 A1A       0.027200
     35 H8           1.9180    12.3420    -4.3050 hc         1 A1A       0.034700
     36 H7           2.0620    12.3730    -6.0380 hc         1 A1A       0.034700
@<TRIPOS>BOND
     1     1     7 ar  
     2     1    14 ar  
     3     2     8 1   
     4     2    12 1   
     5     2    22 1   
     6     3     4 1   
     7     3    20 1   
     8     3    35 1   
     9     3    36 1   
    10     4     5 1   
    11     4    23 1   
    12     4    24 1   
    13     5    15 1   
    14     5    25 1   
    15     5    26 1   
    16     6     7 1   
    17     6    10 2   
    18     6    15 1   
    19     7     9 ar  
    20     8     9 ar  
    21     8    13 ar  
    22     9    11 1   
    23    11    12 2   
    24    11    27 1   
    25    12    28 1   
    26    13    14 ar  
    27    14    29 1   
    28    15    16 1   
    29    16    17 1   
    30    16    21 1   
    31    16    30 1   
    32    17    18 1   
    33    17    19 1   
    34    20    21 1   
    35    20    31 1   
    36    20    32 1   
    37    21    33 1   
    38    21    34 1   
@<TRIPOS>SUBSTRUCTURE
     1 A1A         1 TEMP              0 ****  ****    0 ROOT
