@<TRIPOS>MOLECULE
A1A
   40    43     1     0     0
SMALL
abcg2


@<TRIPOS>ATOM
      1 N1          -0.1380    14.2590    -2.6920 nh         1 A1A      -0.758300
      2 N3          -1.2050    14.4200     1.3240 nb         1 A1A      -0.234000
      3 C4          -1.1490    11.1030    -5.3770 ca         1 A1A       0.141300
      4 C5          -0.5610    12.3800    -4.8460 c6         1 A1A      -0.101000
      5 C6          -1.6150    13.4200    -4.4580 c6         1 A1A      -0.100400
      6 C7          -0.9280    14.6360    -3.8460 c6         1 A1A       0.212800
      7 C8          -0.5900    14.3120    -1.4170 ca         1 A1A       0.438900
      8 C10         -2.0460    14.8600     0.3860 ca         1 A1A       0.141500
      9 C13         -1.8430    14.8440    -1.0080 ca         1 A1A      -0.242800
     10 C15          0.3550    12.0720    -3.6510 c6         1 A1A      -0.100400
     11 C1          -1.0250     9.4050    -6.8980 ca         1 A1A       0.133300
     12 N5          -0.5600    10.5640    -6.4410 nb         1 A1A      -0.189000
     13 N           -2.1760    10.5760    -4.7230 nb         1 A1A      -0.177000
     14 C3          -2.6460     9.4200    -5.1800 ca         1 A1A       0.111900
     15 C2          -2.1020     8.7800    -6.2750 ca         1 A1A      -0.225000
     16 C14          0.9380    13.3520    -3.0620 c6         1 A1A       0.212800
     17 C12         -3.0460    15.3730    -1.5890 cc         1 A1A      -0.205200
     18 C11         -3.8790    15.6840    -0.5580 cd         1 A1A      -0.183100
     19 N4          -3.2710    15.3780     0.6290 na         1 A1A      -0.317400
     20 C9          -0.1020    13.9220     0.8080 ca         1 A1A       0.179900
     21 N2           0.2350    13.8430    -0.4720 nb         1 A1A      -0.306000
     22 H6           0.0620    12.8050    -5.6410 hc         1 A1A       0.069700
     23 H7          -2.1830    13.7280    -5.3390 hc         1 A1A       0.061450
     24 H8          -2.3240    12.9940    -3.7450 hc         1 A1A       0.061450
     25 H10         -0.2430    15.0720    -4.5800 h1         1 A1A       0.063700
     26 H9          -1.6310    15.4230    -3.5990 h1         1 A1A       0.063700
     27 H16          1.1680    11.4110    -3.9610 hc         1 A1A       0.061450
     28 H17         -0.2140    11.5470    -2.8780 hc         1 A1A       0.061450
     29 H1           0.4560     9.4270    -8.4430 hc         1 A1A       0.057367
     30 H2           0.0370     7.8130    -7.8500 hc         1 A1A       0.057367
     31 H3          -1.0750     8.6650    -8.9050 hc         1 A1A       0.057367
     32 H5          -3.4870     8.9910    -4.6480 h4         1 A1A       0.024100
     33 H4          -2.4960     7.8390    -6.6310 ha         1 A1A       0.133000
     34 H14          1.5670    13.8550    -3.8020 h1         1 A1A       0.063700
     35 H15          1.5550    13.1350    -2.1970 h1         1 A1A       0.063700
     36 H13         -3.3000    15.5050    -2.6260 ha         1 A1A       0.202000
     37 H12         -4.8720    16.1010    -0.5780 h4         1 A1A       0.215000
     38 H           -3.6730    15.5000     1.5440 hn         1 A1A       0.361000
     39 H11          0.6260    13.5270     1.5100 h5         1 A1A       0.042100
     40 C           -0.3600     8.8000    -8.0910 c3         1 A1A      -0.153400
@<TRIPOS>BOND
     1     1     6 1   
     2     1     7 1   
     3     1    16 1   
     4     2     8 ar  
     5     2    20 ar  
     6     3     4 1   
     7     3    12 ar  
     8     3    13 ar  
     9     4     5 1   
    10     4    10 1   
    11     4    22 1   
    12     5     6 1   
    13     5    23 1   
    14     5    24 1   
    15     6    25 1   
    16     6    26 1   
    17     7     9 ar  
    18     7    21 ar  
    19     8     9 ar  
    20     8    19 1   
    21     9    17 1   
    22    10    16 1   
    23    10    27 1   
    24    10    28 1   
    25    11    12 ar  
    26    11    15 ar  
    27    11    40 1   
    28    13    14 ar  
    29    14    15 ar  
    30    14    32 1   
    31    15    33 1   
    32    16    34 1   
    33    16    35 1   
    34    17    18 2   
    35    17    36 1   
    36    18    19 1   
    37    18    37 1   
    38    19    38 1   
    39    20    21 ar  
    40    20    39 1   
    41    29    40 1   
    42    30    40 1   
    43    31    40 1   
@<TRIPOS>SUBSTRUCTURE
     1 A1A         1 TEMP              0 ****  ****    0 ROOT
