@<TRIPOS>MOLECULE
A1A
   22    23     1     0     0
SMALL
abcg2


@<TRIPOS>ATOM
      1 N1          -5.5670     6.1350   -17.0200 na         1 A1A       0.049900
      2 C4          -5.0650     6.6990   -15.7970 c3         1 A1A      -0.078400
      3 C5          -5.1720     8.2450   -15.7390 c          1 A1A       0.721000
      4 C6          -5.5570     5.7160   -19.1190 cc         1 A1A       0.321800
      5 C7          -6.8940     5.5300   -18.6880 ca         1 A1A      -0.273900
      6 C8          -8.1250     5.1590   -19.2310 ca         1 A1A      -0.010000
      7 O           -4.6290     8.7550   -14.7430 o          1 A1A      -0.711500
      8 O1          -5.7820     8.8060   -16.6620 o          1 A1A      -0.711500
      9 N2          -4.8010     6.0870   -18.1140 nd         1 A1A      -0.492100
     10 C3          -6.8490     5.8300   -17.3160 ca         1 A1A       0.376500
     11 N           -7.8760     5.7890   -16.4740 nb         1 A1A      -0.643000
     12 C2          -9.0220     5.4360   -17.0230 ca         1 A1A       0.356900
     13 C1          -9.2170     5.1160   -18.3860 ca         1 A1A      -0.199300
     14 C          -10.5880     4.7600   -18.8800 c3         1 A1A      -0.023800
     15 H5          -5.6250     6.2650   -14.9670 h1         1 A1A       0.053200
     16 H4          -4.0270     6.3850   -15.6790 h1         1 A1A       0.053200
     17 H7          -5.1390     5.5920   -20.1060 h4         1 A1A       0.029800
     18 H8          -8.2260     4.9130   -20.2820 ha         1 A1A       0.100000
     19 H3          -9.8760     5.3900   -16.3540 h4         1 A1A       0.000100
     20 H          -11.1660     5.6540   -19.1220 hc         1 A1A       0.027033
     21 H1         -10.5390     4.1500   -19.7810 hc         1 A1A       0.027033
     22 H2         -11.1530     4.2050   -18.1300 hc         1 A1A       0.027033
@<TRIPOS>BOND
     1     1     2 1   
     2     1     9 1   
     3     1    10 1   
     4     2     3 1   
     5     2    15 1   
     6     2    16 1   
     7     3     7 1   
     8     3     8 1   
     9     4     5 1   
    10     4     9 2   
    11     4    17 1   
    12     5     6 ar  
    13     5    10 ar  
    14     6    13 ar  
    15     6    18 1   
    16    10    11 ar  
    17    11    12 ar  
    18    12    13 ar  
    19    12    19 1   
    20    13    14 1   
    21    14    20 1   
    22    14    21 1   
    23    14    22 1   
@<TRIPOS>SUBSTRUCTURE
     1 A1A         1 TEMP              0 ****  ****    0 ROOT
