@<TRIPOS>MOLECULE
A1A
   46    49     1     0     0
SMALL
No Charge or Current Charge


@<TRIPOS>ATOM
      1 N1           1.3680     9.6900    -9.0630 ns         1 A1A      -0.160000
      2 N3           4.7470     9.0080   -13.3860 na         1 A1A      -0.162100
      3 C4          -0.6030    11.0410    -4.8030 ca         1 A1A      -0.311500
      4 C5          -1.5320    14.1520    -4.1890 ca         1 A1A       0.197000
      5 C6          -2.8500    13.6460    -4.2150 ca         1 A1A      -0.068000
      6 C7          -3.8700    14.3370    -4.8950 ca         1 A1A      -0.117000
      7 C8          -3.5890    15.5440    -5.5560 ca         1 A1A      -0.083000
      8 C10         -1.2660    15.3740    -4.8550 ca         1 A1A       0.150000
      9 C13          1.2260    10.7110    -8.1310 c          1 A1A       0.614700
     10 C15          2.1880     8.2940   -10.8980 ca         1 A1A       0.372900
     11 C17          4.9620    10.9060   -12.4190 cc         1 A1A       0.365800
     12 O2           1.9450    11.7040    -8.1220 o          1 A1A      -0.565100
     13 C14          2.2460     9.5160   -10.1770 ca         1 A1A      -0.143000
     14 C19          3.1670    10.4990   -10.6110 ca         1 A1A       0.008000
     15 C18          3.9460    10.1620   -11.7220 ca         1 A1A      -0.262900
     16 N4           5.4680    10.2110   -13.4470 nd         1 A1A      -0.501100
     17 C16          3.8310     8.9620   -12.3580 ca         1 A1A       0.368500
     18 N2           2.9660     8.0090   -11.9750 nb         1 A1A      -0.664000
     19 C12          0.1260    10.5440    -7.0970 ca         1 A1A      -0.172600
     20 C1          -1.0930     9.8330    -7.3140 ca         1 A1A       0.005700
     21 C           -1.4940     9.2240    -8.6580 c3         1 A1A      -0.062800
     22 C11          0.3410    11.1560    -5.8400 ca         1 A1A       0.030000
     23 C3          -1.7860    10.3170    -5.0130 ca         1 A1A       0.014000
     24 C2          -2.0240     9.7260    -6.2610 ca         1 A1A      -0.140000
     25 O            1.1350    11.7580    -2.9080 o          1 A1A      -0.528000
     26 O1          -1.3340    11.4990    -2.2540 o          1 A1A      -0.528000
     27 N           -0.4940    13.4780    -3.5230 nu         1 A1A      -0.869100
     28 F           -0.0140    15.8930    -4.8530 f          1 A1A      -0.170000
     29 C9          -2.2840    16.0630    -5.5340 ca         1 A1A      -0.138000
     30 H12          0.7320     8.9170    -8.9170 hn         1 A1A       0.163000
     31 H            4.9040     8.2540   -14.0490 hn         1 A1A       0.389000
     32 H7          -3.0980    12.7230    -3.7020 ha         1 A1A       0.147000
     33 H8          -4.8810    13.9360    -4.9060 ha         1 A1A       0.125000
     34 H9          -4.3800    16.0760    -6.0810 ha         1 A1A       0.122000
     35 H13          1.4900     7.5130   -10.5980 h4         1 A1A       0.026100
     36 H14          5.3590    11.8970   -12.2430 h4         1 A1A       0.055800
     37 H15          3.2800    11.4670   -10.1310 ha         1 A1A       0.135000
     38 H2          -1.2640     9.8980    -9.4930 hc         1 A1A       0.053033
     39 H1          -0.9920     8.2650    -8.8290 hc         1 A1A       0.053033
     40 H3          -2.5730     9.0320    -8.7060 hc         1 A1A       0.053033
     41 H11          1.2590    11.7150    -5.6610 ha         1 A1A       0.136000
     42 H5          -2.5290    10.2160    -4.2230 ha         1 A1A       0.147000
     43 H4          -2.9560     9.1860    -6.4130 ha         1 A1A       0.122000
     44 H6           0.4390    13.8580    -3.6160 hn         1 A1A       0.503000
     45 H10         -2.0600    16.9980    -6.0420 ha         1 A1A       0.138000
     46 S           -0.2910    11.8370    -3.2260 sy         1 A1A       1.150600
@<TRIPOS>BOND
     1     1     9 1   
     2     1    13 1   
     3     1    30 1   
     4     2    16 1   
     5     2    17 1   
     6     2    31 1   
     7     3    22 ar  
     8     3    23 ar  
     9     3    46 1   
    10     4     5 ar  
    11     4     8 ar  
    12     4    27 1   
    13     5     6 ar  
    14     5    32 1   
    15     6     7 ar  
    16     6    33 1   
    17     7    29 ar  
    18     7    34 1   
    19     8    28 1   
    20     8    29 ar  
    21     9    12 2   
    22     9    19 1   
    23    10    13 ar  
    24    10    18 ar  
    25    10    35 1   
    26    11    15 1   
    27    11    16 2   
    28    11    36 1   
    29    13    14 ar  
    30    14    15 ar  
    31    14    37 1   
    32    15    17 ar  
    33    17    18 ar  
    34    19    20 ar  
    35    19    22 ar  
    36    20    21 1   
    37    20    24 ar  
    38    21    38 1   
    39    21    39 1   
    40    21    40 1   
    41    22    41 1   
    42    23    24 ar  
    43    23    42 1   
    44    24    43 1   
    45    25    46 2   
    46    26    46 2   
    47    27    44 1   
    48    27    46 1   
    49    29    45 1   
@<TRIPOS>SUBSTRUCTURE
     1 A1A         1 TEMP              0 ****  ****    0 ROOT
