@<TRIPOS>MOLECULE
A1A
   20    20     1     0     0
SMALL
abcg2


@<TRIPOS>ATOM
      1 N1          -6.9570     5.4800   -17.0940 na         1 A1A      -0.060700
      2 C4          -9.0240     4.9090   -16.6140 cc         1 A1A      -0.207000
      3 C5          -7.7600     5.0950   -16.1050 cc         1 A1A       0.011700
      4 C6          -5.5410     5.7810   -17.0400 c3         1 A1A       0.044900
      5 C3         -11.2740     5.1610   -18.6910 c2         1 A1A      -0.175000
      6 C1          -8.9410     5.2060   -17.9710 cd         1 A1A       0.038200
      7 N           -7.6680     5.5480   -18.2290 na         1 A1A      -0.008000
      8 C           -7.0490     5.9630   -19.4730 c3         1 A1A       0.042900
      9 H6          -9.8960     4.5810   -16.0750 ha         1 A1A       0.194000
     10 H7          -7.3780     4.9750   -15.1040 h4         1 A1A       0.203000
     11 H8          -4.9850     5.1180   -17.7000 h1         1 A1A       0.093033
     12 H10         -5.3600     6.8180   -17.3110 h1         1 A1A       0.093033
     13 H9          -5.2160     5.6180   -16.0180 h1         1 A1A       0.093033
     14 H5         -11.6440     5.2150   -17.6760 ha         1 A1A       0.195000
     15 H4         -12.0150     5.1080   -19.4770 ha         1 A1A       0.195000
     16 H3          -9.6710     5.1180   -20.0260 ha         1 A1A       0.206000
     17 H2          -6.6140     6.9540   -19.3660 h1         1 A1A       0.092367
     18 H           -6.2850     5.2480   -19.7710 h1         1 A1A       0.092367
     19 H1          -7.8110     6.0050   -20.2410 h1         1 A1A       0.092367
     20 C2          -9.9780     5.1630   -18.9890 cf         1 A1A      -0.236200
@<TRIPOS>BOND
     1     1     3 2   
     2     1     4 1   
     3     1     7 1   
     4     2     3 1   
     5     2     6 2   
     6     2     9 1   
     7     3    10 1   
     8     4    11 1   
     9     4    12 1   
    10     4    13 1   
    11     5    14 1   
    12     5    15 1   
    13     5    20 2   
    14     6     7 1   
    15     6    20 1   
    16     7     8 1   
    17     8    17 1   
    18     8    18 1   
    19     8    19 1   
    20    16    20 1   
@<TRIPOS>SUBSTRUCTURE
     1 A1A         1 TEMP              0 ****  ****    0 ROOT
