@<TRIPOS>MOLECULE
A1A
   25    25     1     0     0
SMALL
No Charge or Current Charge


@<TRIPOS>ATOM
      1 N1          -4.8350     6.6700   -19.9530 n7         1 A1A      -0.844400
      2 C4          -5.3620     5.3470   -19.5420 c6         1 A1A       0.150800
      3 C5          -6.9080     5.3310   -19.5800 c6         1 A1A      -0.131400
      4 O1         -11.3200     5.9880   -18.2190 o          1 A1A      -0.545000
      5 S           -9.9560     5.5690   -17.8960 s6         1 A1A       1.201100
      6 O           -9.5270     4.1880   -18.1120 o          1 A1A      -0.545000
      7 C           -9.6000     6.0800   -16.2260 c3         1 A1A      -0.344100
      8 N           -8.9630     6.5570   -18.7970 n7         1 A1A      -0.915300
      9 C1          -7.4950     6.4680   -18.7020 c6         1 A1A       0.234500
     10 C3          -5.3470     7.7770   -19.1120 c6         1 A1A       0.150800
     11 C2          -6.8910     7.8190   -19.1470 c6         1 A1A      -0.131400
     12 H9          -5.1200     6.8440   -20.9260 hn         1 A1A       0.405000
     13 H10         -4.9680     4.5660   -20.2100 h1         1 A1A       0.057450
     14 H11         -5.0180     5.1130   -18.5230 h1         1 A1A       0.057450
     15 H12         -7.2510     5.4380   -20.6190 hc         1 A1A       0.054700
     16 H13         -7.2530     4.3500   -19.2340 hc         1 A1A       0.054700
     17 H1          -9.7470     7.1640   -16.1770 h1         1 A1A       0.102367
     18 H2         -10.3000     5.5550   -15.5700 h1         1 A1A       0.102367
     19 H           -8.5670     5.8040   -15.9980 h1         1 A1A       0.102367
     20 H3          -9.2620     6.3270   -19.7420 hn         1 A1A       0.494000
     21 H4          -7.1950     6.3030   -17.6560 h1         1 A1A       0.063700
     22 H7          -4.9430     8.7350   -19.4720 h1         1 A1A       0.057450
     23 H8          -5.0050     7.6430   -18.0740 h1         1 A1A       0.057450
     24 H5          -7.2310     8.0710   -20.1610 hc         1 A1A       0.054700
     25 H6          -7.2500     8.6210   -18.4880 hc         1 A1A       0.054700
@<TRIPOS>BOND
     1     1     2 1   
     2     1    10 1   
     3     1    12 1   
     4     2     3 1   
     5     2    13 1   
     6     2    14 1   
     7     3     9 1   
     8     3    15 1   
     9     3    16 1   
    10     4     5 2   
    11     5     6 2   
    12     5     7 1   
    13     5     8 1   
    14     7    17 1   
    15     7    18 1   
    16     7    19 1   
    17     8     9 1   
    18     8    20 1   
    19     9    11 1   
    20     9    21 1   
    21    10    11 1   
    22    10    22 1   
    23    10    23 1   
    24    11    24 1   
    25    11    25 1   
@<TRIPOS>SUBSTRUCTURE
     1 A1A         1 TEMP              0 ****  ****    0 ROOT
