@<TRIPOS>MOLECULE
A1A
   19    19     1     0     0
SMALL
abcg2


@<TRIPOS>ATOM
      1 C4          -9.2220     5.1190   -17.8180 ca         1 A1A      -0.019800
      2 C5         -10.6740     4.9510   -17.7290 ce         1 A1A      -0.226200
      3 C6         -11.5100     4.8570   -18.7600 c2         1 A1A      -0.202000
      4 C7          -8.4920     5.1620   -16.6410 ca         1 A1A      -0.027300
      5 C3          -8.5130     5.2400   -19.0140 ca         1 A1A      -0.009000
      6 C2          -7.1380     5.3950   -18.9930 ca         1 A1A      -0.103000
      7 C1          -6.4780     5.4290   -17.7870 ca         1 A1A      -0.081000
      8 N           -7.1630     5.3120   -16.6420 na         1 A1A       0.079300
      9 C           -6.4230     5.3400   -15.3730 c3         1 A1A       0.011900
     10 H6         -11.0730     4.8990   -16.7230 ha         1 A1A       0.199000
     11 H8         -12.5700     4.7330   -18.5910 ha         1 A1A       0.188500
     12 H7         -11.1900     4.8980   -19.7930 ha         1 A1A       0.188500
     13 H9          -8.9680     5.0760   -15.6740 h4         1 A1A       0.183000
     14 H5          -9.0270     5.2170   -19.9650 ha         1 A1A       0.165000
     15 H4          -6.5710     5.4920   -19.9070 ha         1 A1A       0.178000
     16 H3          -5.4070     5.5500   -17.7050 h4         1 A1A       0.185000
     17 H2          -7.1230     5.3230   -14.5470 h1         1 A1A       0.097033
     18 H           -5.7740     4.4700   -15.3210 h1         1 A1A       0.097033
     19 H1          -5.8300     6.2490   -15.3280 h1         1 A1A       0.097033
@<TRIPOS>BOND
     1     1     2 1   
     2     1     4 ar  
     3     1     5 ar  
     4     2     3 2   
     5     2    10 1   
     6     3    11 1   
     7     3    12 1   
     8     4     8 2   
     9     4    13 1   
    10     5     6 ar  
    11     5    14 1   
    12     6     7 ar  
    13     6    15 1   
    14     7     8 1   
    15     7    16 1   
    16     8     9 1   
    17     9    17 1   
    18     9    18 1   
    19     9    19 1   
@<TRIPOS>SUBSTRUCTURE
     1 A1A         1 TEMP              0 ****  ****    0 ROOT
