@<TRIPOS>MOLECULE
A1A
   34    36     1     0     0
SMALL
No Charge or Current Charge


@<TRIPOS>ATOM
      1 N1          -3.8720    15.2270    -3.7610 nb         1 A1A      -0.199000
      2 N3          -5.7080    16.0610    -0.1630 na         1 A1A      -0.330400
      3 C4          -1.7440    12.9950    -4.0000 c5         1 A1A       0.106000
      4 C5          -1.6610    15.1360    -2.6020 c          1 A1A       0.519600
      5 C6          -3.1790    15.2920    -2.5940 ca         1 A1A       0.146500
      6 C7          -5.2110    15.4270    -3.7030 ca         1 A1A       0.124900
      7 C8          -5.2550    15.7900    -1.4460 ca         1 A1A       0.111500
      8 C10         -3.4550    15.7560    -0.0580 cc         1 A1A      -0.160200
      9 O3          -0.9510    15.8520    -1.8980 o          1 A1A      -0.625100
     10 N           -1.0580    14.2020    -3.4850 n          1 A1A      -0.346800
     11 C3          -0.6870    12.4240    -4.9770 c5         1 A1A      -0.070400
     12 C12          0.4200    14.0870    -3.5840 c5         1 A1A       0.086000
     13 C1           0.6500    12.6770    -4.2250 c5         1 A1A       0.016000
     14 C2           0.8850    11.5400    -3.1360 c          1 A1A       0.708000
     15 O2           0.3960    11.6540    -2.0190 o          1 A1A      -0.712500
     16 O1           1.6330    10.6040    -3.3950 o          1 A1A      -0.712500
     17 O            1.6950    12.7630    -5.2530 os         1 A1A      -0.446000
     18 C            3.0240    13.1450    -4.8430 c3         1 A1A       0.164900
     19 C11         -3.8940    15.6020    -1.4150 ca         1 A1A      -0.152800
     20 C9          -4.5820    16.0380     0.6970 cd         1 A1A      -0.189100
     21 N2          -5.9430    15.7030    -2.5990 nb         1 A1A      -0.209000
     22 H           -6.6730    16.2410     0.1010 hn         1 A1A       0.351000
     23 H9          -5.7540    15.3620    -4.6440 h5         1 A1A       0.037100
     24 H11         -2.4390    15.6740     0.3260 ha         1 A1A       0.237000
     25 H5          -0.7160    12.9670    -5.9300 hc         1 A1A       0.048200
     26 H6          -0.8580    11.3650    -5.2010 hc         1 A1A       0.048200
     27 H12          0.8070    14.8890    -4.2260 h1         1 A1A       0.049200
     28 H13          0.9100    14.1740    -2.6050 h1         1 A1A       0.049200
     29 H2           3.7040    13.1320    -5.7040 h1         1 A1A       0.015367
     30 H1           3.0330    14.1580    -4.4230 h1         1 A1A       0.015367
     31 H3           3.4210    12.4550    -4.0880 h1         1 A1A       0.015367
     32 H10         -4.6650    16.2220     1.7670 h4         1 A1A       0.209000
     33 H7          -2.6740    13.2100    -4.5370 h1         1 A1A       0.047700
     34 H8          -1.9700    12.2960    -3.1850 h1         1 A1A       0.047700
@<TRIPOS>BOND
     1     1     5 ar  
     2     1     6 ar  
     3     2     7 1   
     4     2    20 1   
     5     2    22 1   
     6     3    10 1   
     7     3    11 1   
     8     3    33 1   
     9     3    34 1   
    10     4     5 1   
    11     4     9 2   
    12     4    10 1   
    13     5    19 ar  
    14     6    21 ar  
    15     6    23 1   
    16     7    19 ar  
    17     7    21 ar  
    18     8    19 1   
    19     8    20 2   
    20     8    24 1   
    21    10    12 1   
    22    11    13 1   
    23    11    25 1   
    24    11    26 1   
    25    12    13 1   
    26    12    27 1   
    27    12    28 1   
    28    13    14 1   
    29    13    17 1   
    30    14    15 1   
    31    14    16 1   
    32    17    18 1   
    33    18    29 1   
    34    18    30 1   
    35    18    31 1   
    36    20    32 1   
@<TRIPOS>SUBSTRUCTURE
     1 A1A         1 TEMP              0 ****  ****    0 ROOT
