@<TRIPOS>MOLECULE
A1A
   17    18     1     0     0
SMALL
No Charge or Current Charge


@<TRIPOS>ATOM
      1 N1          -4.6460     5.2750   -19.9620 nc         1 A1A      -0.413000
      2 N3          -5.4130     5.5340   -17.9080 na         1 A1A      -0.532000
      3 C4         -10.1190     5.0000   -18.5060 cc         1 A1A      -0.133000
      4 C5         -10.0360     5.2230   -17.1530 cd         1 A1A      -0.227000
      5 N           -3.1070     5.6920   -18.2360 nv         1 A1A      -1.025900
      6 C           -4.3410     5.5040   -18.7080 cd         1 A1A       0.610400
      7 C1          -6.4580     5.3030   -18.7510 cd         1 A1A       0.464000
      8 N2          -6.0250     5.1440   -19.9980 nc         1 A1A      -0.330000
      9 C2          -7.8200     5.2460   -18.3080 cd         1 A1A      -0.260500
     10 S           -8.3550     5.4630   -16.6350 ss         1 A1A       0.185000
     11 C3          -8.8650     5.0110   -19.1670 cc         1 A1A      -0.081000
     12 H2          -5.4380     5.6800   -16.9140 hn         1 A1A       0.361000
     13 H5         -10.8400     5.2630   -16.4280 h4         1 A1A       0.153000
     14 H1          -2.3820     5.8750   -18.9220 hn         1 A1A       0.466500
     15 H           -3.0040     6.1470   -17.3360 hn         1 A1A       0.466500
     16 H3          -8.7700     4.8500   -20.2380 ha         1 A1A       0.156000
     17 H4         -11.0510     4.8280   -19.0370 ha         1 A1A       0.140000
@<TRIPOS>BOND
     1     1     6 2   
     2     1     8 1   
     3     2     6 1   
     4     2     7 1   
     5     2    12 1   
     6     3     4 2   
     7     3    11 1   
     8     3    17 1   
     9     4    10 1   
    10     4    13 1   
    11     5     6 1   
    12     5    14 1   
    13     5    15 1   
    14     7     8 2   
    15     7     9 1   
    16     9    10 1   
    17     9    11 2   
    18    11    16 1   
@<TRIPOS>SUBSTRUCTURE
     1 A1A         1 TEMP              0 ****  ****    0 ROOT
