@<TRIPOS>MOLECULE
A1A
   31    33     1     0     0
SMALL
abcg2


@<TRIPOS>ATOM
      1 N1          -4.2870     6.2710   -14.1170 n7         1 A1A      -0.839400
      2 C4          -6.1390     6.0090   -17.7110 ca         1 A1A       0.325000
      3 C5          -5.5730     6.0730   -18.9640 ca         1 A1A      -0.232000
      4 C6          -6.3880     5.9410   -20.1020 ca         1 A1A       0.369900
      5 C7          -8.2660     5.6470   -18.8560 ca         1 A1A       0.277000
      6 C8          -9.6580     5.4000   -18.8090 ca         1 A1A      -0.089000
      7 C10         -9.5620     5.2260   -16.4100 ca         1 A1A      -0.119000
      8 C11         -8.2170     5.4830   -16.4250 ca         1 A1A      -0.082000
      9 C9         -10.2940     5.2040   -17.6140 ca         1 A1A      -0.098000
     10 C12         -7.5420     5.7350   -17.6400 ca         1 A1A      -0.088000
     11 N2          -7.6810     5.7630   -20.0740 nb         1 A1A      -0.672000
     12 N           -5.4120     6.1840   -16.5400 nh         1 A1A      -0.794400
     13 C1          -5.7090     7.4200   -15.8050 c6         1 A1A       0.152800
     14 C2          -3.9860     5.9220   -16.5760 c6         1 A1A       0.152800
     15 C3          -3.5300     5.5720   -15.1490 c6         1 A1A       0.149300
     16 C           -4.7500     7.5510   -14.6080 c6         1 A1A       0.149300
     17 H8          -5.0870     5.7100   -13.8500 hn         1 A1A       0.415000
     18 H9          -4.5180     6.2640   -19.0990 ha         1 A1A       0.122000
     19 H10         -5.9280     6.0180   -21.0820 h4         1 A1A       0.016100
     20 H11        -10.2000     5.3550   -19.7440 ha         1 A1A       0.131000
     21 H13        -10.0640     5.0250   -15.4730 ha         1 A1A       0.114000
     22 H14         -7.6570     5.4630   -15.5000 ha         1 A1A       0.122000
     23 H12        -11.3580     5.0090   -17.5910 ha         1 A1A       0.116000
     24 H3          -6.7410     7.4000   -15.4550 h1         1 A1A       0.045200
     25 H2          -5.6060     8.2970   -16.4590 h1         1 A1A       0.045200
     26 H5          -3.7820     5.0810   -17.2380 h1         1 A1A       0.045200
     27 H4          -3.4210     6.7800   -16.9670 h1         1 A1A       0.045200
     28 H7          -3.6340     4.5000   -14.9820 h1         1 A1A       0.054950
     29 H6          -2.4660     5.8080   -15.0550 h1         1 A1A       0.054950
     30 H           -3.8760     8.1410   -14.8930 h1         1 A1A       0.054950
     31 H1          -5.2460     8.1010   -13.8080 h1         1 A1A       0.054950
@<TRIPOS>BOND
     1     1    15 1   
     2     1    16 1   
     3     1    17 1   
     4     2     3 ar  
     5     2    10 ar  
     6     2    12 1   
     7     3     4 ar  
     8     3    18 1   
     9     4    11 ar  
    10     4    19 1   
    11     5     6 ar  
    12     5    10 ar  
    13     5    11 ar  
    14     6     9 ar  
    15     6    20 1   
    16     7     8 ar  
    17     7     9 ar  
    18     7    21 1   
    19     8    10 ar  
    20     8    22 1   
    21     9    23 1   
    22    12    13 1   
    23    12    14 1   
    24    13    16 1   
    25    13    24 1   
    26    13    25 1   
    27    14    15 1   
    28    14    26 1   
    29    14    27 1   
    30    15    28 1   
    31    15    29 1   
    32    16    30 1   
    33    16    31 1   
@<TRIPOS>SUBSTRUCTURE
     1 A1A         1 TEMP              0 ****  ****    0 ROOT
