@<TRIPOS>MOLECULE
A1A
   25    26     1     0     0
SMALL
No Charge or Current Charge


@<TRIPOS>ATOM
      1 N1          -8.3260     6.7930   -17.8970 n2         1 A1A      -0.605900
      2 C4          -6.4190     6.3000   -16.3980 c6         1 A1A      -0.069400
      3 C5          -4.8810     6.1520   -16.3380 c6         1 A1A      -0.075400
      4 C6          -4.3590     5.4240   -17.6000 c6         1 A1A      -0.071400
      5 C7          -4.7000     6.2210   -18.8830 c6         1 A1A      -0.060400
      6 C8          -6.2110     6.5540   -19.0040 c5         1 A1A       0.170500
      7 N          -10.2840     3.1680   -17.8880 n1         1 A1A      -0.440000
      8 C           -9.9750     4.0960   -18.5210 c1         1 A1A       0.312900
      9 C2          -8.3640     5.8950   -18.8120 c2         1 A1A       0.559200
     10 N2          -7.1610     5.4830   -19.3530 nu         1 A1A      -0.892400
     11 C3          -6.8790     7.0540   -17.6810 c5         1 A1A       0.107500
     12 H4          -6.7830     6.8280   -15.5060 hc         1 A1A       0.052700
     13 H3          -6.8680     5.2970   -16.3680 hc         1 A1A       0.052700
     14 H5          -4.4100     7.1410   -16.2510 hc         1 A1A       0.041200
     15 H6          -4.5980     5.5880   -15.4390 hc         1 A1A       0.041200
     16 H8          -3.2710     5.2880   -17.5280 hc         1 A1A       0.045200
     17 H7          -4.7960     4.4180   -17.6600 hc         1 A1A       0.045200
     18 H10         -4.1330     7.1620   -18.8760 hc         1 A1A       0.044200
     19 H9          -4.3670     5.6700   -19.7730 hc         1 A1A       0.044200
     20 H11         -6.2900     7.3500   -19.7590 h1         1 A1A       0.034700
     21 H1          -9.5010     4.9370   -20.3780 hc         1 A1A       0.083700
     22 H          -10.4490     5.9700   -19.3130 hc         1 A1A       0.083700
     23 H12         -7.2030     5.1290   -20.3080 hn         1 A1A       0.464000
     24 H2          -6.6840     8.1280   -17.5490 h1         1 A1A       0.076700
     25 C1          -9.6210     5.2540   -19.3370 c3         1 A1A      -0.043600
@<TRIPOS>BOND
     1     1     9 2   
     2     1    11 1   
     3     2     3 1   
     4     2    11 1   
     5     2    12 1   
     6     2    13 1   
     7     3     4 1   
     8     3    14 1   
     9     3    15 1   
    10     4     5 1   
    11     4    16 1   
    12     4    17 1   
    13     5     6 1   
    14     5    18 1   
    15     5    19 1   
    16     6    10 1   
    17     6    11 1   
    18     6    20 1   
    19     7     8 3   
    20     8    25 1   
    21     9    10 1   
    22     9    25 1   
    23    10    23 1   
    24    11    24 1   
    25    21    25 1   
    26    22    25 1   
@<TRIPOS>SUBSTRUCTURE
     1 A1A         1 TEMP              0 ****  ****    0 ROOT
