@<TRIPOS>MOLECULE
A1A
   67    71     1     0     0
SMALL
abcg2


@<TRIPOS>ATOM
      1 N1           4.6530   -14.8240    16.6480 nb         1 A1A      -0.308000
      2 N3          10.4640   -18.2190    17.2030 ns         1 A1A      -0.496900
      3 C4           2.4340   -14.6540    19.0170 ca         1 A1A      -0.108300
      4 C5           2.7090   -14.6240    20.3750 ca         1 A1A      -0.005000
      5 C6           2.5100   -13.4550    21.1040 ca         1 A1A      -0.246500
      6 C7           2.2300   -12.0500    23.4960 c6         1 A1A      -0.306400
      7 C8           2.5460   -10.8740    22.5890 c6         1 A1A      -0.054400
      8 C10          2.0550   -12.2770    20.5140 ca         1 A1A       0.013700
      9 C13          4.9600   -15.8350    17.4610 ca         1 A1A       0.447900
     10 C15          7.1700   -15.6900    16.5950 ca         1 A1A       0.160500
     11 C17          7.0130   -17.3500    18.1350 cc         1 A1A      -0.123200
     12 C20         11.6290   -19.0510    17.4340 c5         1 A1A       0.111700
     13 C21         12.8120   -18.4560    16.6850 c5         1 A1A       0.140800
     14 C24         11.5040   -20.4400    16.7740 c5         1 A1A      -0.108400
     15 C23         12.2140   -20.2850    15.4160 c5         1 A1A       0.155800
     16 N4          12.5320   -18.8670    15.3250 n3         1 A1A      -0.736600
     17 C18          8.2900   -17.3040    17.6420 cd         1 A1A      -0.164300
     18 N5           8.3730   -16.2940    16.7050 na         1 A1A      -0.307400
     19 N2           6.8730   -14.6660    15.7880 nb         1 A1A      -0.235000
     20 C14          5.6100   -14.3070    15.8760 ca         1 A1A       0.188900
     21 C16          6.2850   -16.3280    17.4720 ca         1 A1A      -0.275800
     22 N            3.9980   -16.3650    18.2290 nu         1 A1A      -0.920100
     23 C3           2.6180   -15.9220    18.2100 c3         1 A1A       0.290800
     24 C1           1.6930   -17.0600    18.6730 c3         1 A1A      -0.072700
     25 C2           1.8540   -18.2880    17.7810 c3         1 A1A      -0.088600
     26 C            0.2410   -16.5970    18.6790 c3         1 A1A      -0.088600
     27 C12          1.9700   -13.4880    18.4150 ca         1 A1A      -0.028000
     28 C11          1.7860   -12.3290    19.1470 ca         1 A1A      -0.132000
     29 S            2.9410   -13.5400    22.8260 sy         1 A1A       1.050500
     30 O            2.2920   -14.7040    23.4230 o          1 A1A      -0.522000
     31 O1           4.3980   -13.4500    22.9230 o          1 A1A      -0.522000
     32 C9           1.8070   -10.9950    21.2650 c6         1 A1A      -0.049100
     33 H22         10.4000   -17.8250    16.2760 hn         1 A1A       0.324500
     34 H10          3.0700   -15.5180    20.8720 ha         1 A1A       0.127000
     35 H12          1.1540   -12.2130    23.5900 h1         1 A1A       0.106700
     36 H11          2.6590   -11.9470    24.4950 h1         1 A1A       0.106700
     37 H13          2.2400    -9.9570    23.0930 hc         1 A1A       0.065700
     38 H14          3.6230   -10.7970    22.4300 hc         1 A1A       0.065700
     39 H21          6.6500   -18.0530    18.8680 ha         1 A1A       0.218000
     40 H1          11.8020   -19.1150    18.5070 h1         1 A1A       0.089700
     41 H24         12.8770   -17.3700    16.7730 h1         1 A1A       0.048700
     42 H23         13.7510   -18.8840    17.0770 h1         1 A1A       0.048700
     43 H25         13.2540   -18.8600    13.3700 h1         1 A1A       0.032700
     44 H26         13.7320   -17.4730    14.3450 h1         1 A1A       0.032700
     45 H27         14.5210   -19.0410    14.5930 h1         1 A1A       0.032700
     46 H31         10.4620   -20.7420    16.6770 hc         1 A1A       0.060200
     47 H30         12.0020   -21.1930    17.3860 hc         1 A1A       0.060200
     48 H29         11.5980   -20.5970    14.5700 h1         1 A1A       0.039700
     49 H28         13.1270   -20.9010    15.3980 h1         1 A1A       0.039700
     50 H2           9.2080   -15.9680    16.2430 hn         1 A1A       0.363000
     51 H20          5.3000   -13.4830    15.2420 h5         1 A1A       0.042100
     52 H19          4.2590   -17.0790    18.8900 hn         1 A1A       0.502000
     53 H            2.3590   -15.6950    17.1720 h1         1 A1A       0.082700
     54 H6           1.9710   -17.3360    19.6980 hc         1 A1A       0.052700
     55 H7           2.8650   -18.6930    17.8030 hc         1 A1A       0.039367
     56 H9           1.1780   -19.0810    18.1030 hc         1 A1A       0.039367
     57 H8           1.6120   -18.0470    16.7440 hc         1 A1A       0.039367
     58 H3           0.0650   -15.7890    19.3890 hc         1 A1A       0.039367
     59 H4          -0.0590   -16.2450    17.6890 hc         1 A1A       0.039367
     60 H5          -0.4190   -17.4220    18.9510 hc         1 A1A       0.039367
     61 H18          1.7530   -13.4880    17.3540 ha         1 A1A       0.125000
     62 H17          1.4300   -11.4340    18.6500 ha         1 A1A       0.116000
     63 H15          0.7320   -10.9090    21.4510 hc         1 A1A       0.063700
     64 H16          2.0680   -10.1550    20.6200 hc         1 A1A       0.063700
     65 C19          9.4000   -18.2010    18.0230 c          1 A1A       0.635300
     66 C22         13.5610   -18.5500    14.3700 c3         1 A1A       0.158100
     67 O2           9.3210   -18.8700    19.0460 o          1 A1A      -0.596100
@<TRIPOS>BOND
     1     1     9 ar  
     2     1    20 ar  
     3     2    12 1   
     4     2    33 1   
     5     2    65 1   
     6     3     4 ar  
     7     3    23 1   
     8     3    27 ar  
     9     4     5 ar  
    10     4    34 1   
    11     5     8 ar  
    12     5    29 1   
    13     6     7 1   
    14     6    29 1   
    15     6    35 1   
    16     6    36 1   
    17     7    32 1   
    18     7    37 1   
    19     7    38 1   
    20     8    28 ar  
    21     8    32 1   
    22     9    21 ar  
    23     9    22 1   
    24    10    18 1   
    25    10    19 ar  
    26    10    21 ar  
    27    11    17 2   
    28    11    21 1   
    29    11    39 1   
    30    12    13 1   
    31    12    14 1   
    32    12    40 1   
    33    13    16 1   
    34    13    41 1   
    35    13    42 1   
    36    14    15 1   
    37    14    46 1   
    38    14    47 1   
    39    15    16 1   
    40    15    48 1   
    41    15    49 1   
    42    16    66 1   
    43    17    18 1   
    44    17    65 1   
    45    18    50 1   
    46    19    20 ar  
    47    20    51 1   
    48    22    23 1   
    49    22    52 1   
    50    23    24 1   
    51    23    53 1   
    52    24    25 1   
    53    24    26 1   
    54    24    54 1   
    55    25    55 1   
    56    25    56 1   
    57    25    57 1   
    58    26    58 1   
    59    26    59 1   
    60    26    60 1   
    61    27    28 ar  
    62    27    61 1   
    63    28    62 1   
    64    29    30 2   
    65    29    31 2   
    66    32    63 1   
    67    32    64 1   
    68    43    66 1   
    69    44    66 1   
    70    45    66 1   
    71    65    67 2   
@<TRIPOS>SUBSTRUCTURE
     1 A1A         1 TEMP              0 ****  ****    0 ROOT
