@<TRIPOS>MOLECULE
A1A
   37    39     1     0     0
SMALL
abcg2


@<TRIPOS>ATOM
      1 N1          -6.5230    14.9030    -0.9410 nb         1 A1A      -0.712000
      2 C4          -4.2300    14.9800    -1.6950 ca         1 A1A      -0.221600
      3 C5          -5.6140    14.8330    -1.8970 ca         1 A1A       0.400900
      4 C6          -6.0490    15.1430     0.2720 ca         1 A1A       0.373500
      5 C7          -5.9390    15.5210     2.4590 cc         1 A1A      -0.182100
      6 C8          -4.6480    15.5680     2.0230 cd         1 A1A      -0.212200
      7 C10         -3.7600    15.2360    -0.4120 ca         1 A1A       0.017000
      8 C13         -1.6740    10.7300    -4.3180 ca         1 A1A      -0.094000
      9 C15         -1.0430    11.7870    -6.3930 ca         1 A1A      -0.094000
     10 C14         -1.4120    10.6580    -5.6780 ca         1 A1A      -0.022900
     11 C12         -1.5690    11.9540    -3.6720 ca         1 A1A      -0.090000
     12 C16         -0.9460    13.0010    -5.7280 ca         1 A1A      -0.090000
     13 C11         -1.2100    13.1050    -4.3660 ca         1 A1A      -0.046300
     14 C2          -1.0670    14.4460    -3.6760 c3         1 A1A       0.167000
     15 C1           0.3430    14.6270    -3.0930 c3         1 A1A      -0.221400
     16 C            0.6860    13.7430    -1.8770 c          1 A1A       0.720000
     17 O1           1.8140    13.2330    -1.8430 o          1 A1A      -0.727500
     18 O           -0.1980    13.6490    -0.9840 o          1 A1A      -0.727500
     19 N           -2.0440    14.6400    -2.6320 ns         1 A1A      -0.492900
     20 C3          -3.3380    14.8690    -2.8880 c          1 A1A       0.610700
     21 O2          -3.7860    14.9830    -4.0240 o          1 A1A      -0.652100
     22 C9          -4.6890    15.3250     0.6170 ca         1 A1A      -0.154800
     23 N2          -6.7810    15.2670     1.4080 na         1 A1A      -0.334400
     24 H6          -5.9840    14.6400    -2.8960 h4         1 A1A       0.037100
     25 H7          -6.3350    15.6510     3.4530 h4         1 A1A       0.204000
     26 H8          -3.7770    15.7500     2.6320 ha         1 A1A       0.209000
     27 H9          -2.7060    15.3820    -0.2080 ha         1 A1A       0.150000
     28 H10         -1.7790    12.0010    -2.6110 ha         1 A1A       0.125000
     29 H13         -0.6680    13.8850    -6.2890 ha         1 A1A       0.125000
     30 H           -1.2100    15.2200    -4.4340 h1         1 A1A       0.043700
     31 H3           0.4470    15.6740    -2.7870 hc         1 A1A       0.038200
     32 H4           1.0670    14.4640    -3.8920 hc         1 A1A       0.038200
     33 H5          -1.6900    14.3600    -1.7140 hn         1 A1A       0.385500
     34 H1          -7.7830    15.1870     1.4680 hn         1 A1A       0.350000
     35 H11         -1.9610     9.8500    -3.7590 ha         1 A1A       0.114500
     36 BR          -1.5770     9.0000    -6.5720 br         1 A1A      -0.150100
     37 H12         -0.8420    11.7350    -7.4550 ha         1 A1A       0.114500
@<TRIPOS>BOND
     1     1     3 ar  
     2     1     4 ar  
     3     2     3 ar  
     4     2     7 ar  
     5     2    20 1   
     6     3    24 1   
     7     4    22 ar  
     8     4    23 1   
     9     5     6 2   
    10     5    23 1   
    11     5    25 1   
    12     6    22 1   
    13     6    26 1   
    14     7    22 ar  
    15     7    27 1   
    16     8    10 ar  
    17     8    11 ar  
    18     8    35 1   
    19     9    10 ar  
    20     9    12 ar  
    21     9    37 1   
    22    10    36 1   
    23    11    13 ar  
    24    11    28 1   
    25    12    13 ar  
    26    12    29 1   
    27    13    14 1   
    28    14    15 1   
    29    14    19 1   
    30    14    30 1   
    31    15    16 1   
    32    15    31 1   
    33    15    32 1   
    34    16    17 1   
    35    16    18 1   
    36    19    20 1   
    37    19    33 1   
    38    20    21 2   
    39    23    34 1   
@<TRIPOS>SUBSTRUCTURE
     1 A1A         1 TEMP              0 ****  ****    0 ROOT
