@<TRIPOS>MOLECULE
A1A
   29    31     1     0     0
SMALL
abcg2


@<TRIPOS>ATOM
      1 N1          -0.0140    14.3810    -0.3080 nb         1 A1A      -0.270000
      2 N3          -3.3460    15.7200     1.4420 na         1 A1A      -0.328400
      3 C4          -2.2750    13.8190    -3.1310 c5         1 A1A       0.182800
      4 C5          -1.1630    14.4010    -0.9990 ca         1 A1A       0.452900
      5 C6          -0.0060    14.7920     0.9550 ca         1 A1A       0.186900
      6 C7          -2.1560    15.2800     0.9750 ca         1 A1A       0.149500
      7 C8          -4.2850    15.6380     0.4460 cc         1 A1A      -0.227100
      8 C10         -2.3320    14.8900    -0.3630 ca         1 A1A      -0.265800
      9 O           -0.1480    11.3340    -2.0120 o          1 A1A      -0.707000
     10 C            0.6920    12.2260    -2.2980 c          1 A1A       0.730000
     11 O1           1.9220    12.1380    -2.2080 o          1 A1A      -0.707000
     12 C1           0.1280    13.5400    -2.8910 c5         1 A1A       0.090500
     13 N           -1.1180    13.9690    -2.2640 nh         1 A1A      -0.730300
     14 C3          -1.7680    12.9170    -4.2580 c5         1 A1A       0.181300
     15 O2          -1.9320    11.5550    -3.9700 oh         1 A1A      -0.717000
     16 C2          -0.3020    13.3480    -4.3520 c5         1 A1A      -0.120400
     17 C9          -3.7080    15.1350    -0.6810 cd         1 A1A      -0.185200
     18 N2          -1.0150    15.2430     1.6710 nb         1 A1A      -0.288000
     19 H2          -3.5100    16.0620     2.3750 hn         1 A1A       0.344000
     20 H7          -2.6090    14.7870    -3.5200 h1         1 A1A       0.041200
     21 H8          -3.1130    13.3560    -2.6090 h1         1 A1A       0.041200
     22 H9           0.9560    14.7450     1.4550 h5         1 A1A       0.033100
     23 H10         -5.3020    15.9490     0.6200 h4         1 A1A       0.197000
     24 H            0.8830    14.3210    -2.8000 h1         1 A1A       0.068700
     25 H1          -2.3080    13.1260    -5.1840 h1         1 A1A       0.042700
     26 H6          -1.3550    11.3600    -3.1910 ho         1 A1A       0.523000
     27 H4          -0.2370    14.2990    -4.8850 hc         1 A1A       0.044200
     28 H5           0.3170    12.6300    -4.8910 hc         1 A1A       0.044200
     29 H11         -4.2200    14.9770    -1.6150 ha         1 A1A       0.194000
@<TRIPOS>BOND
     1     1     4 ar  
     2     1     5 ar  
     3     2     6 1   
     4     2     7 1   
     5     2    19 1   
     6     3    13 1   
     7     3    14 1   
     8     3    20 1   
     9     3    21 1   
    10     4     8 ar  
    11     4    13 1   
    12     5    18 ar  
    13     5    22 1   
    14     6     8 ar  
    15     6    18 ar  
    16     7    17 2   
    17     7    23 1   
    18     8    17 1   
    19     9    10 1   
    20    10    11 1   
    21    10    12 1   
    22    12    13 1   
    23    12    16 1   
    24    12    24 1   
    25    14    15 1   
    26    14    16 1   
    27    14    25 1   
    28    15    26 1   
    29    16    27 1   
    30    16    28 1   
    31    17    29 1   
@<TRIPOS>SUBSTRUCTURE
     1 A1A         1 TEMP              0 ****  ****    0 ROOT
