@<TRIPOS>MOLECULE
A1A
   26    26     1     0     0
SMALL
No Charge or Current Charge


@<TRIPOS>ATOM
      1 N1          -6.8310     5.8500   -18.6320 n          1 A1A      -0.410800
      2 C4          -4.7510     4.7160   -19.5420 c6         1 A1A       0.125800
      3 C5          -4.7860     7.1650   -19.3420 c6         1 A1A       0.125800
      4 C6          -6.3330     7.1390   -19.1980 c6         1 A1A       0.095000
      5 O           -7.2980     6.7230   -16.5720 o          1 A1A      -0.630100
      6 C2          -7.4270     5.7880   -17.3500 c          1 A1A       0.645100
      7 N           -8.1850     4.6540   -16.9650 n          1 A1A      -0.420800
      8 C1          -8.8940     3.8010   -17.9480 c3         1 A1A       0.090800
      9 C           -8.6100     4.5060   -15.5560 c3         1 A1A       0.090800
     10 N2          -4.2910     6.0030   -20.1250 n7         1 A1A      -0.862400
     11 C3          -6.2980     4.6570   -19.3610 c6         1 A1A       0.095000
     12 H9          -4.2770     4.5790   -18.5580 h1         1 A1A       0.040700
     13 H8          -4.4240     3.8820   -20.1810 h1         1 A1A       0.040700
     14 H12         -4.3330     7.1500   -18.3390 h1         1 A1A       0.040700
     15 H11         -4.4780     8.1010   -19.8310 h1         1 A1A       0.040700
     16 H14         -6.6550     7.9900   -18.5830 h1         1 A1A       0.061700
     17 H13         -6.7830     7.2800   -20.1910 h1         1 A1A       0.061700
     18 H3          -8.9740     4.3090   -18.9170 h1         1 A1A       0.038533
     19 H4          -8.3630     2.8490   -18.0700 h1         1 A1A       0.038533
     20 H5          -9.9110     3.5900   -17.5910 h1         1 A1A       0.038533
     21 H2          -7.7600     4.6890   -14.8870 h1         1 A1A       0.038533
     22 H1          -9.4090     5.2250   -15.3320 h1         1 A1A       0.038533
     23 H           -8.9830     3.4880   -15.3770 h1         1 A1A       0.038533
     24 H15         -3.2620     6.0200   -20.1420 hn         1 A1A       0.413000
     25 H7          -6.5180     3.7300   -18.8200 h1         1 A1A       0.061700
     26 H6          -6.7800     4.5940   -20.3470 h1         1 A1A       0.061700
@<TRIPOS>BOND
     1     1     4 1   
     2     1     6 1   
     3     1    11 1   
     4     2    10 1   
     5     2    11 1   
     6     2    12 1   
     7     2    13 1   
     8     3     4 1   
     9     3    10 1   
    10     3    14 1   
    11     3    15 1   
    12     4    16 1   
    13     4    17 1   
    14     5     6 2   
    15     6     7 1   
    16     7     8 1   
    17     7     9 1   
    18     8    18 1   
    19     8    19 1   
    20     8    20 1   
    21     9    21 1   
    22     9    22 1   
    23     9    23 1   
    24    10    24 1   
    25    11    25 1   
    26    11    26 1   
@<TRIPOS>SUBSTRUCTURE
     1 A1A         1 TEMP              0 ****  ****    0 ROOT
