@<TRIPOS>MOLECULE
A1A
   47    50     1     0     0
SMALL
No Charge or Current Charge


@<TRIPOS>ATOM
      1 N1          -3.8340    14.3050    -1.9170 ns         1 A1A      -0.379100
      2 N3          -8.4600    15.6430     5.4650 ns         1 A1A      -0.507900
      3 C4          -5.2040    14.2310    -1.7560 c          1 A1A       0.608700
      4 C5          -5.7250    14.5210    -0.3610 ca         1 A1A      -0.157600
      5 C6          -7.1010    14.3540    -0.0880 ca         1 A1A      -0.039500
      6 C7          -7.6230    14.6130     1.1920 ca         1 A1A      -0.171500
      7 C8          -6.7800    15.0510     2.2330 ca         1 A1A      -0.004000
      8 C10         -9.6130    15.6710     6.3230 cx         1 A1A       0.063700
      9 C13         -5.4120    15.2240     1.9650 ca         1 A1A      -0.171500
     10 C15         -3.3750    14.4940    -4.4160 ca         1 A1A      -0.125800
     11 C17         -4.4700    15.3620    -6.3580 ca         1 A1A      -0.232000
     12 O3          -9.5210    14.9330     3.5790 o          1 A1A      -0.615100
     13 C9          -8.4870    15.2720     4.1400 c          1 A1A       0.662100
     14 C12         -9.8370    14.4900     7.2340 cx         1 A1A      -0.134400
     15 C11         -9.3780    15.8090     7.8070 cx         1 A1A      -0.134400
     16 N2          -7.2340    15.3340     3.5500 ns         1 A1A      -0.163000
     17 C14         -4.8840    14.9660     0.6880 ca         1 A1A      -0.039500
     18 O2          -5.9600    13.9210    -2.6670 o          1 A1A      -0.635100
     19 C3          -3.0390    14.1680    -3.0520 cc         1 A1A      -0.007600
     20 C1          -1.7240    13.7140    -3.0330 cd         1 A1A      -0.138300
     21 C2          -0.9620    13.3570    -1.7870 c          1 A1A       0.739200
     22 O1          -1.4990    13.5160    -0.6980 o          1 A1A      -0.708500
     23 O            0.1820    12.9400    -1.8940 o          1 A1A      -0.708500
     24 C19         -2.2980    14.1380    -5.2050 ca         1 A1A       0.348500
     25 N           -1.2870    13.6360    -4.3850 na         1 A1A      -0.157400
     26 C            0.0180    13.1820    -4.9000 c3         1 A1A       0.083900
     27 N4          -2.2800    14.3360    -6.5450 nb         1 A1A      -0.704000
     28 C18         -3.3620    14.9240    -7.1060 ca         1 A1A       0.332900
     29 C16         -4.4820    15.1610    -4.9670 ca         1 A1A      -0.008000
     30 H4          -3.3280    14.3030    -1.0370 hn         1 A1A       0.380500
     31 H8          -7.5600    15.9140     5.8410 hn         1 A1A       0.312500
     32 H5          -7.7780    14.0170    -0.8710 ha         1 A1A       0.134500
     33 H6          -8.6860    14.4670     1.3490 ha         1 A1A       0.120500
     34 H9         -10.4860    16.1660     5.8930 h1         1 A1A       0.079700
     35 H14         -4.7450    15.5660     2.7530 ha         1 A1A       0.120500
     36 H17         -5.2980    15.8610    -6.8520 ha         1 A1A       0.100000
     37 H13         -9.1190    13.6740     7.1970 hc         1 A1A       0.076700
     38 H12        -10.8640    14.1860     7.4190 hc         1 A1A       0.076700
     39 H11         -8.3520    15.8780     8.1610 hc         1 A1A       0.076700
     40 H10        -10.0960    16.3910     8.3780 hc         1 A1A       0.076700
     41 H7          -6.4980    15.6370     4.1730 hn         1 A1A       0.141000
     42 H15         -3.8200    15.1280     0.5340 ha         1 A1A       0.134500
     43 H1           0.0170    13.1620    -5.9970 h1         1 A1A       0.049700
     44 H2           0.8040    13.8650    -4.5570 h1         1 A1A       0.049700
     45 H            0.2280    12.1720    -4.5300 h1         1 A1A       0.049700
     46 H18         -3.3270    15.0720    -8.1850 h4         1 A1A      -0.006900
     47 H16         -5.3040    15.5320    -4.3640 ha         1 A1A       0.129000
@<TRIPOS>BOND
     1     1     3 1   
     2     1    19 1   
     3     1    30 1   
     4     2     8 1   
     5     2    13 1   
     6     2    31 1   
     7     3     4 1   
     8     3    18 2   
     9     4     5 ar  
    10     4    17 ar  
    11     5     6 ar  
    12     5    32 1   
    13     6     7 ar  
    14     6    33 1   
    15     7     9 ar  
    16     7    16 1   
    17     8    14 1   
    18     8    15 1   
    19     8    34 1   
    20     9    17 ar  
    21     9    35 1   
    22    10    19 1   
    23    10    24 ar  
    24    10    29 ar  
    25    11    28 ar  
    26    11    29 ar  
    27    11    36 1   
    28    12    13 2   
    29    13    16 1   
    30    14    15 1   
    31    14    37 1   
    32    14    38 1   
    33    15    39 1   
    34    15    40 1   
    35    16    41 1   
    36    17    42 1   
    37    19    20 2   
    38    20    21 1   
    39    20    25 1   
    40    21    22 1   
    41    21    23 1   
    42    24    25 1   
    43    24    27 ar  
    44    25    26 1   
    45    26    43 1   
    46    26    44 1   
    47    26    45 1   
    48    27    28 ar  
    49    28    46 1   
    50    29    47 1   
@<TRIPOS>SUBSTRUCTURE
     1 A1A         1 TEMP              0 ****  ****    0 ROOT
