@<TRIPOS>MOLECULE
A1A
   59    63     1     0     0
SMALL
No Charge or Current Charge


@<TRIPOS>ATOM
      1 N1           4.0520   -14.5970    16.3050 nb         1 A1A      -0.306000
      2 N3           7.9910   -15.7420    16.6770 na         1 A1A      -0.310400
      3 C4           4.4610   -15.6230    17.0760 ca         1 A1A       0.442900
      4 C5           5.0190   -13.9260    15.6310 ca         1 A1A       0.182900
      5 C6           6.7350   -15.2110    16.4240 ca         1 A1A       0.155500
      6 C7           7.9030   -16.8280    17.5660 cc         1 A1A       0.003700
      7 C8           9.0270   -17.5990    18.0340 cc         1 A1A      -0.084800
      8 C13          6.5570   -16.9600    17.8600 cd         1 A1A      -0.177200
      9 C15          2.0740   -14.7080    18.9000 ca         1 A1A      -0.109300
     10 C17          1.4330   -12.3740    19.2010 ca         1 A1A      -0.132000
     11 C20          2.6350   -14.7010    20.1930 ca         1 A1A      -0.005000
     12 C21          2.7780   -12.1080    23.4440 c6         1 A1A      -0.306400
     13 C22          2.8640   -10.9020    22.4850 c6         1 A1A      -0.055400
     14 S            3.3480   -13.6110    22.6260 sy         1 A1A       1.050500
     15 O            4.8020   -13.4930    22.4470 o          1 A1A      -0.522000
     16 C23          1.8750   -11.0560    21.3080 c6         1 A1A      -0.049100
     17 C18          1.9920   -12.3570    20.4940 ca         1 A1A       0.012700
     18 C16          1.4760   -13.5330    18.4100 ca         1 A1A      -0.028000
     19 C19          2.5950   -13.5400    20.9910 ca         1 A1A      -0.246500
     20 C3           2.1130   -15.9680    18.0320 c3         1 A1A       0.289800
     21 C1           1.3310   -17.1650    18.6580 c3         1 A1A      -0.071700
     22 C2           1.2950   -18.4000    17.7200 c3         1 A1A      -0.088600
     23 C           -0.1120   -16.7710    19.0650 c3         1 A1A      -0.088600
     24 N            3.5140   -16.3400    17.7890 nu         1 A1A      -0.921100
     25 C14          5.8210   -15.9440    17.1410 ca         1 A1A      -0.259800
     26 N2           6.3500   -14.1810    15.6500 nb         1 A1A      -0.232000
     27 C11          9.0270   -18.6640    18.8950 cd         1 A1A      -0.079000
     28 C12          7.9710   -19.3260    19.5770 ch         1 A1A       0.342000
     29 N6           7.1220   -19.8890    20.1480 n1         1 A1A      -0.425000
     30 N5          10.3800   -19.0260    19.0010 na         1 A1A       0.164800
     31 N4          11.2160   -18.2210    18.2340 nd         1 A1A      -0.491800
     32 C9          10.3670   -17.3840    17.6750 cc         1 A1A       0.232900
     33 H1           8.8480   -15.3850    16.2710 hn         1 A1A       0.363000
     34 H10          4.6910   -13.0960    15.0080 h5         1 A1A       0.042100
     35 H13         12.0270   -20.1600    19.6900 h1         1 A1A       0.068033
     36 H14         10.6970   -19.9570    20.8660 h1         1 A1A       0.068033
     37 H12         10.5070   -21.0750    19.4810 h1         1 A1A       0.068033
     38 H15          6.1210   -17.7010    18.5210 ha         1 A1A       0.207000
     39 H17          0.9580   -11.4800    18.8050 ha         1 A1A       0.116000
     40 H18          3.1080   -15.6040    20.5760 ha         1 A1A       0.127000
     41 H20          1.7430   -12.3010    23.7550 h1         1 A1A       0.106200
     42 H19          3.4140   -11.9820    24.3290 h1         1 A1A       0.106200
     43 H21          2.6350    -9.9780    23.0330 hc         1 A1A       0.065700
     44 H22          3.8890   -10.7860    22.1040 hc         1 A1A       0.065700
     45 H23          0.8480   -10.9800    21.6930 hc         1 A1A       0.063700
     46 H24          2.0000   -10.1960    20.6350 hc         1 A1A       0.063700
     47 H16          1.0390   -13.5160    17.4140 ha         1 A1A       0.126000
     48 H            1.6320   -15.7390    17.0690 h1         1 A1A       0.083700
     49 H5           1.8490   -17.4690    19.5760 hc         1 A1A       0.051700
     50 H6           2.3060   -18.7640    17.4990 hc         1 A1A       0.039033
     51 H8           0.7430   -19.2250    18.1860 hc         1 A1A       0.039033
     52 H7           0.8050   -18.1550    16.7700 hc         1 A1A       0.039033
     53 H2          -0.1100   -15.9830    19.8270 hc         1 A1A       0.039033
     54 H3          -0.6770   -16.4090    18.1970 hc         1 A1A       0.039033
     55 H4          -0.6460   -17.6320    19.4850 hc         1 A1A       0.039033
     56 H9           3.8840   -17.1230    18.3210 hn         1 A1A       0.501000
     57 H11         10.7540   -16.6250    17.0080 h4         1 A1A       0.044100
     58 C10         10.9380   -20.1220    19.8090 c3         1 A1A       0.064900
     59 O1           2.7870   -14.7660    23.3400 o          1 A1A      -0.522000
@<TRIPOS>BOND
     1     1     3 ar  
     2     1     4 ar  
     3     2     5 1   
     4     2     6 1   
     5     2    33 1   
     6     3    24 1   
     7     3    25 ar  
     8     4    26 ar  
     9     4    34 1   
    10     5    25 ar  
    11     5    26 ar  
    12     6     7 1   
    13     6     8 2   
    14     7    27 2   
    15     7    32 1   
    16     8    25 1   
    17     8    38 1   
    18     9    11 ar  
    19     9    18 ar  
    20     9    20 1   
    21    10    17 ar  
    22    10    18 ar  
    23    10    39 1   
    24    11    19 ar  
    25    11    40 1   
    26    12    13 1   
    27    12    14 1   
    28    12    41 1   
    29    12    42 1   
    30    13    16 1   
    31    13    43 1   
    32    13    44 1   
    33    14    15 2   
    34    14    19 1   
    35    14    59 2   
    36    16    17 1   
    37    16    45 1   
    38    16    46 1   
    39    17    19 ar  
    40    18    47 1   
    41    20    21 1   
    42    20    24 1   
    43    20    48 1   
    44    21    22 1   
    45    21    23 1   
    46    21    49 1   
    47    22    50 1   
    48    22    51 1   
    49    22    52 1   
    50    23    53 1   
    51    23    54 1   
    52    23    55 1   
    53    24    56 1   
    54    27    28 1   
    55    27    30 1   
    56    28    29 3   
    57    30    31 1   
    58    30    58 1   
    59    31    32 2   
    60    32    57 1   
    61    35    58 1   
    62    36    58 1   
    63    37    58 1   
@<TRIPOS>SUBSTRUCTURE
     1 A1A         1 TEMP              0 ****  ****    0 ROOT
