@<TRIPOS>MOLECULE
A1A
   65    69     1     0     0
SMALL
abcg2


@<TRIPOS>ATOM
      1 N1          10.3350   -19.2490    19.4190 na         1 A1A       0.143800
      2 N3           4.1970   -14.8420    16.5760 nb         1 A1A      -0.298000
      3 C4           9.0350   -17.8260    18.3870 cc         1 A1A      -0.159800
      4 C5           7.8770   -17.0880    17.9330 cc         1 A1A       0.037700
      5 C6           6.5630   -17.2050    18.3110 cd         1 A1A      -0.209200
      6 C7           5.8350   -16.2440    17.5560 ca         1 A1A      -0.247800
      7 C8           4.4960   -15.8170    17.4350 ca         1 A1A       0.429900
      8 C10          2.0330   -14.5890    18.9310 ca         1 A1A      -0.107300
      9 C13          1.7470   -12.1970    20.4210 ca         1 A1A       0.012700
     10 C15          2.5300   -14.4980    20.2200 ca         1 A1A      -0.009000
     11 C17          2.4240   -10.7110    22.3910 c6         1 A1A      -0.055400
     12 C22          5.1800   -14.3000    15.8560 ca         1 A1A       0.173900
     13 C24         10.3970   -17.6380    18.0670 cc         1 A1A       0.258900
     14 S            3.1440   -13.3080    22.5500 sy         1 A1A       1.050500
     15 O1           2.7860   -14.5380    23.2550 o          1 A1A      -0.523000
     16 C16          2.3810   -11.9030    23.3340 c6         1 A1A      -0.306400
     17 C18          1.5160   -10.9210    21.1880 c6         1 A1A      -0.049100
     18 C12          1.2570   -12.3090    19.1210 ca         1 A1A      -0.131000
     19 C11          1.4000   -13.4740    18.3890 ca         1 A1A      -0.030000
     20 C14          2.3860   -13.3200    20.9450 ca         1 A1A      -0.245500
     21 C9           2.1450   -15.8860    18.1570 c3         1 A1A       0.289800
     22 C19          1.2040   -16.9680    18.7170 c3         1 A1A      -0.070700
     23 N2           3.5050   -16.3800    18.1500 nu         1 A1A      -0.923100
     24 N4           6.4630   -14.5970    15.8760 nb         1 A1A      -0.226000
     25 C23          6.7500   -15.5740    16.7390 ca         1 A1A       0.148500
     26 N5           7.9760   -16.0960    16.9820 na         1 A1A      -0.310400
     27 C3           9.0510   -18.8940    19.2630 cd         1 A1A      -0.123000
     28 N6          11.1640   -18.5060    18.6910 nd         1 A1A      -0.516800
     29 C2          10.8420   -20.3760    20.1470 c3         1 A1A      -0.000400
     30 C1          11.0560   -21.5710    19.2210 c          1 A1A       0.582100
     31 O           10.3970   -21.7150    18.2050 o          1 A1A      -0.575100
     32 N           11.9810   -22.4410    19.6360 ns         1 A1A      -0.505900
     33 C           12.2630   -23.6650    18.9200 c3         1 A1A       0.094300
     34 H9           6.1800   -17.8950    19.0470 ha         1 A1A       0.198000
     35 H13          3.0290   -15.3510    20.6650 ha         1 A1A       0.126000
     36 H16          2.0980    -9.8260    22.9380 hc         1 A1A       0.066200
     37 H17          3.4510   -10.5200    22.0750 hc         1 A1A       0.066200
     38 H22         -0.9000   -17.2570    19.1070 hc         1 A1A       0.038533
     39 H23         -0.3570   -15.6200    19.4450 hc         1 A1A       0.038533
     40 H21         -0.5730   -16.1500    17.7760 hc         1 A1A       0.038533
     41 H25          0.6050   -19.0000    18.2870 hc         1 A1A       0.038533
     42 H24          0.9990   -18.0550    16.8520 hc         1 A1A       0.038533
     43 H26          2.2850   -18.6800    17.8830 hc         1 A1A       0.038533
     44 H27          4.8780   -13.5120    15.1730 h5         1 A1A       0.041100
     45 H28         10.8380   -16.8980    17.4150 h4         1 A1A       0.036100
     46 H15          1.3580   -12.1840    23.5910 h1         1 A1A       0.105700
     47 H14          2.9430   -11.7350    24.2550 h1         1 A1A       0.105700
     48 H18          0.4750   -10.9150    21.5270 hc         1 A1A       0.063200
     49 H19          1.6150   -10.0760    20.5050 hc         1 A1A       0.063200
     50 H12          0.7580   -11.4570    18.6750 ha         1 A1A       0.115000
     51 H11          1.0100   -13.5210    17.3800 ha         1 A1A       0.123000
     52 H            1.8480   -15.6920    17.1220 h1         1 A1A       0.085700
     53 H20          1.5230   -17.1910    19.7430 hc         1 A1A       0.049700
     54 H10          3.7650   -17.0380    18.8680 hn         1 A1A       0.494000
     55 H1           8.8200   -15.8000    16.5170 hn         1 A1A       0.362000
     56 H8           8.2520   -19.4040    19.7760 h4         1 A1A       0.160000
     57 H6          10.1180   -20.6510    20.9150 h1         1 A1A       0.080200
     58 H7          11.7610   -20.0840    20.6560 h1         1 A1A       0.080200
     59 H5          12.5110   -22.2450    20.4690 hn         1 A1A       0.316500
     60 H2          12.9970   -24.2320    19.4850 h1         1 A1A       0.044033
     61 H4          11.3680   -24.2760    18.8070 h1         1 A1A       0.044033
     62 H3          12.6710   -23.4650    17.9280 h1         1 A1A       0.044033
     63 C20         -0.2350   -16.4640    18.7670 c3         1 A1A      -0.087600
     64 C21          1.2860   -18.2470    17.8890 c3         1 A1A      -0.087600
     65 O2           4.5680   -13.0270    22.3670 o          1 A1A      -0.523000
@<TRIPOS>BOND
     1     1    27 1   
     2     1    28 1   
     3     1    29 1   
     4     2     7 ar  
     5     2    12 ar  
     6     3     4 1   
     7     3    13 1   
     8     3    27 2   
     9     4     5 2   
    10     4    26 1   
    11     5     6 1   
    12     5    34 1   
    13     6     7 ar  
    14     6    25 ar  
    15     7    23 1   
    16     8    10 ar  
    17     8    19 ar  
    18     8    21 1   
    19     9    17 1   
    20     9    18 ar  
    21     9    20 ar  
    22    10    20 ar  
    23    10    35 1   
    24    11    16 1   
    25    11    17 1   
    26    11    36 1   
    27    11    37 1   
    28    12    24 ar  
    29    12    44 1   
    30    13    28 2   
    31    13    45 1   
    32    14    15 2   
    33    14    16 1   
    34    14    20 1   
    35    14    65 2   
    36    16    46 1   
    37    16    47 1   
    38    17    48 1   
    39    17    49 1   
    40    18    19 ar  
    41    18    50 1   
    42    19    51 1   
    43    21    22 1   
    44    21    23 1   
    45    21    52 1   
    46    22    53 1   
    47    22    63 1   
    48    22    64 1   
    49    23    54 1   
    50    24    25 ar  
    51    25    26 1   
    52    26    55 1   
    53    27    56 1   
    54    29    30 1   
    55    29    57 1   
    56    29    58 1   
    57    30    31 2   
    58    30    32 1   
    59    32    33 1   
    60    32    59 1   
    61    33    60 1   
    62    33    61 1   
    63    33    62 1   
    64    38    63 1   
    65    39    63 1   
    66    40    63 1   
    67    41    64 1   
    68    42    64 1   
    69    43    64 1   
@<TRIPOS>SUBSTRUCTURE
     1 A1A         1 TEMP              0 ****  ****    0 ROOT
