@<TRIPOS>MOLECULE
A1A
   29    31     1     0     0
SMALL
No Charge or Current Charge


@<TRIPOS>ATOM
      1 N1           0.0030    14.2780    -0.1980 nb         1 A1A      -0.270000
      2 N3          -3.4180    15.8430     1.4620 na         1 A1A      -0.328400
      3 C4          -2.3340    13.7260    -3.0860 c5         1 A1A       0.182800
      4 C5          -1.1570    14.3740    -0.8870 ca         1 A1A       0.452900
      5 C6           0.0040    14.7070     1.0840 ca         1 A1A       0.186900
      6 C7          -2.1870    15.3400     1.0750 ca         1 A1A       0.149500
      7 C8          -4.3520    15.7890     0.4080 cc         1 A1A      -0.227100
      8 C10         -2.2840    14.9310    -0.2350 ca         1 A1A      -0.265800
      9 O            0.1070    11.1960    -2.3240 o          1 A1A      -0.707000
     10 C            0.7890    12.2140    -2.4060 c          1 A1A       0.730000
     11 O1           1.9700    12.2200    -2.0810 o          1 A1A      -0.707000
     12 C1           0.1420    13.5540    -2.9710 c5         1 A1A       0.090500
     13 N           -1.1290    13.9140    -2.2330 nh         1 A1A      -0.730300
     14 C3          -1.8210    12.8540    -4.2810 c5         1 A1A       0.181300
     15 O2          -1.8540    11.4500    -4.0080 oh         1 A1A      -0.717000
     16 C2          -0.3660    13.3780    -4.4400 c5         1 A1A      -0.120400
     17 C9          -3.6460    15.2270    -0.6380 cd         1 A1A      -0.185200
     18 N2          -1.0390    15.2350     1.7630 nb         1 A1A      -0.288000
     19 H2          -3.6060    16.2060     2.3910 hn         1 A1A       0.344000
     20 H7          -2.7080    14.6930    -3.4490 h1         1 A1A       0.041200
     21 H8          -3.1450    13.2130    -2.5510 h1         1 A1A       0.041200
     22 H9           0.9440    14.6190     1.6270 h5         1 A1A       0.033100
     23 H10         -5.3790    16.1400     0.4860 h4         1 A1A       0.197000
     24 H            0.8960    14.3500    -2.9110 h1         1 A1A       0.068700
     25 H1          -2.4120    13.0600    -5.1840 h1         1 A1A       0.042700
     26 H6          -1.1590    11.3110    -3.2960 ho         1 A1A       0.523000
     27 H4          -0.3700    14.3450    -4.9560 hc         1 A1A       0.044200
     28 H5           0.2700    12.7090    -5.0320 hc         1 A1A       0.044200
     29 H11         -4.0790    15.0620    -1.6210 ha         1 A1A       0.194000
@<TRIPOS>BOND
     1     1     4 ar  
     2     1     5 ar  
     3     2     6 1   
     4     2     7 1   
     5     2    19 1   
     6     3    13 1   
     7     3    14 1   
     8     3    20 1   
     9     3    21 1   
    10     4     8 ar  
    11     4    13 1   
    12     5    18 ar  
    13     5    22 1   
    14     6     8 ar  
    15     6    18 ar  
    16     7    17 2   
    17     7    23 1   
    18     8    17 1   
    19     9    10 1   
    20    10    11 1   
    21    10    12 1   
    22    12    13 1   
    23    12    16 1   
    24    12    24 1   
    25    14    15 1   
    26    14    16 1   
    27    14    25 1   
    28    15    26 1   
    29    16    27 1   
    30    16    28 1   
    31    17    29 1   
@<TRIPOS>SUBSTRUCTURE
     1 A1A         1 TEMP              0 ****  ****    0 ROOT
