@<TRIPOS>MOLECULE
A1A
   26    26     1     0     0
SMALL
abcg2


@<TRIPOS>ATOM
      1 N1          -6.9410     5.8210   -18.7650 n          1 A1A      -0.410800
      2 C4          -4.8290     4.7240   -19.3520 c6         1 A1A       0.125800
      3 C5          -4.8950     7.1120   -19.2160 c6         1 A1A       0.125800
      4 C6          -6.4130     7.0700   -19.2870 c6         1 A1A       0.095000
      5 O           -7.1610     6.7100   -16.6770 o          1 A1A      -0.630100
      6 C2          -7.3640     5.7860   -17.4570 c          1 A1A       0.645100
      7 N           -8.0410     4.6600   -17.0780 n          1 A1A      -0.420800
      8 C1          -8.9360     3.9420   -17.9630 c3         1 A1A       0.090800
      9 C           -8.3070     4.4720   -15.6690 c3         1 A1A       0.090800
     10 N2          -4.3580     5.9670   -19.9320 n7         1 A1A      -0.862400
     11 C3          -6.3480     4.6600   -19.4190 c6         1 A1A       0.095000
     12 H9          -4.5230     4.5990   -18.3000 h1         1 A1A       0.040700
     13 H8          -4.4130     3.8840   -19.9120 h1         1 A1A       0.040700
     14 H12         -4.5870     7.1380   -18.1600 h1         1 A1A       0.040700
     15 H11         -4.5360     8.0300   -19.6850 h1         1 A1A       0.040700
     16 H14         -6.8480     7.9100   -18.7520 h1         1 A1A       0.061700
     17 H13         -6.7210     7.1500   -20.3340 h1         1 A1A       0.061700
     18 H3          -8.9480     4.3840   -18.9550 h1         1 A1A       0.038533
     19 H4          -8.6590     2.8890   -18.0560 h1         1 A1A       0.038533
     20 H5          -9.9560     3.9870   -17.5730 h1         1 A1A       0.038533
     21 H2          -7.4570     4.7820   -15.0670 h1         1 A1A       0.038533
     22 H1          -9.1910     5.0200   -15.3290 h1         1 A1A       0.038533
     23 H           -8.4790     3.4120   -15.4850 h1         1 A1A       0.038533
     24 H15         -3.3470     5.9920   -19.9100 hn         1 A1A       0.413000
     25 H7          -6.6860     3.7370   -18.9570 h1         1 A1A       0.061700
     26 H6          -6.6700     4.6410   -20.4650 h1         1 A1A       0.061700
@<TRIPOS>BOND
     1     1     4 1   
     2     1     6 1   
     3     1    11 1   
     4     2    10 1   
     5     2    11 1   
     6     2    12 1   
     7     2    13 1   
     8     3     4 1   
     9     3    10 1   
    10     3    14 1   
    11     3    15 1   
    12     4    16 1   
    13     4    17 1   
    14     5     6 2   
    15     6     7 1   
    16     7     8 1   
    17     7     9 1   
    18     8    18 1   
    19     8    19 1   
    20     8    20 1   
    21     9    21 1   
    22     9    22 1   
    23     9    23 1   
    24    10    24 1   
    25    11    25 1   
    26    11    26 1   
@<TRIPOS>SUBSTRUCTURE
     1 A1A         1 TEMP              0 ****  ****    0 ROOT
