@<TRIPOS>MOLECULE
A1A
   65    69     1     0     0
SMALL
abcg2


@<TRIPOS>ATOM
      1 N1           3.8380   -16.1090    18.0960 nu         1 A1A      -0.924100
      2 N3           6.8900   -14.2040    16.0600 nb         1 A1A      -0.230000
      3 C4          10.2850   -19.4400    19.6830 ca         1 A1A      -0.116000
      4 C5           9.2430   -18.5940    19.3420 ca         1 A1A      -0.075000
      5 C6           9.2720   -17.8830    18.1410 ca         1 A1A      -0.037800
      6 C7           8.1640   -17.0000    17.7940 cc         1 A1A      -0.026300
      7 C8           6.8470   -17.0830    18.1690 cd         1 A1A      -0.183200
      8 C10          4.8540   -15.5060    17.4610 ca         1 A1A       0.440900
      9 C13          1.6260   -13.3240    18.4550 ca         1 A1A      -0.031000
     10 C15          1.6260   -12.3110    20.6570 ca         1 A1A       0.012700
     11 C17          2.4940   -14.5630    20.2960 ca         1 A1A      -0.005000
     12 C20          1.2520   -11.1400    21.5290 c6         1 A1A      -0.049100
     13 C21          1.5300   -16.8610    18.3290 c3         1 A1A      -0.072700
     14 C22          0.0700   -16.4240    18.3340 c3         1 A1A      -0.088600
     15 C24          5.6230   -13.8450    16.0790 ca         1 A1A       0.181900
     16 C26         10.3660   -18.0480    17.2910 ca         1 A1A      -0.087000
     17 S            2.6750   -13.6840    22.8340 sy         1 A1A       1.047500
     18 O1           2.2050   -14.9860    23.3050 o          1 A1A      -0.522000
     19 C18          1.7770   -12.3780    23.6480 c6         1 A1A      -0.304400
     20 C19          1.9580   -11.0830    22.8760 c6         1 A1A      -0.056400
     21 C14          1.3440   -12.2610    19.2930 ca         1 A1A      -0.131000
     22 C16          2.2040   -13.4880    21.1310 ca         1 A1A      -0.244500
     23 C12          2.2010   -14.4930    18.9440 ca         1 A1A      -0.106300
     24 C11          2.4600   -15.6710    18.0290 c3         1 A1A       0.291800
     25 C23          1.7420   -17.9840    17.3160 c3         1 A1A      -0.088600
     26 N2           4.6090   -14.4230    16.7240 nb         1 A1A      -0.301000
     27 C25          7.1250   -15.2930    16.7970 ca         1 A1A       0.154500
     28 C9           6.1740   -16.0010    17.5390 ca         1 A1A      -0.260800
     29 N4           8.3170   -15.9140    16.9580 na         1 A1A      -0.310400
     30 C3          11.3770   -19.5840    18.8420 ca         1 A1A      -0.054000
     31 C2          11.4150   -18.8970    17.6320 ca         1 A1A      -0.145600
     32 C1          12.6110   -19.0820    16.7490 c          1 A1A       0.608700
     33 O           13.7090   -19.3480    17.2180 o          1 A1A      -0.596100
     34 N           12.4030   -18.9450    15.4310 ns         1 A1A      -0.505900
     35 C           13.4700   -19.0900    14.4690 c3         1 A1A       0.093300
     36 H10          4.0540   -16.8870    18.6990 hn         1 A1A       0.499000
     37 H8           8.4100   -18.4700    20.0230 ha         1 A1A       0.122000
     38 H9           6.4170   -17.8510    18.7920 ha         1 A1A       0.202000
     39 H11          1.3950   -13.2460    17.3990 ha         1 A1A       0.123000
     40 H13          2.9420   -15.4620    20.7030 ha         1 A1A       0.127000
     41 H18          0.1710   -11.1770    21.7000 hc         1 A1A       0.064200
     42 H19          1.4380   -10.2180    20.9780 hc         1 A1A       0.064200
     43 H20          1.7780   -17.2410    19.3290 hc         1 A1A       0.050700
     44 H21         -0.5800   -17.2850    18.4910 hc         1 A1A       0.039033
     45 H22         -0.1450   -15.7020    19.1200 hc         1 A1A       0.039033
     46 H23         -0.2050   -15.9710    17.3790 hc         1 A1A       0.039033
     47 H27          5.3640   -12.9660    15.4980 h5         1 A1A       0.043100
     48 H28         10.3970   -17.5030    16.3560 ha         1 A1A       0.109000
     49 H15          0.7300   -12.6800    23.7010 h1         1 A1A       0.106700
     50 H14          2.1820   -12.3310    24.6610 h1         1 A1A       0.106700
     51 H16          1.5420   -10.2670    23.4670 hc         1 A1A       0.066700
     52 H17          3.0200   -10.8650    22.7490 hc         1 A1A       0.066700
     53 H12          0.8960   -11.3620    18.8840 ha         1 A1A       0.116000
     54 H            2.2610   -15.3460    17.0030 h1         1 A1A       0.082700
     55 H24          1.0810   -18.8230    17.5370 hc         1 A1A       0.039033
     56 H26          1.5140   -17.6380    16.3060 hc         1 A1A       0.039033
     57 H25          2.7630   -18.3630    17.3170 hc         1 A1A       0.039033
     58 H1           9.1900   -15.5750    16.5850 hn         1 A1A       0.363000
     59 H6          12.1940   -20.2360    19.1200 ha         1 A1A       0.138000
     60 H5          11.4640   -18.8640    15.0800 hn         1 A1A       0.317500
     61 H4          13.0710   -18.8770    13.4810 h1         1 A1A       0.041367
     62 H2          14.2800   -18.3900    14.6690 h1         1 A1A       0.041367
     63 H3          13.8830   -20.1000    14.4630 h1         1 A1A       0.041367
     64 O2           4.1070   -13.4040    22.9410 o          1 A1A      -0.522000
     65 H7          10.2510   -19.9810    20.6200 ha         1 A1A       0.122000
@<TRIPOS>BOND
     1     1     8 1   
     2     1    24 1   
     3     1    36 1   
     4     2    15 ar  
     5     2    27 ar  
     6     3     4 ar  
     7     3    30 ar  
     8     3    65 1   
     9     4     5 ar  
    10     4    37 1   
    11     5     6 1   
    12     5    16 ar  
    13     6     7 2   
    14     6    29 1   
    15     7    28 1   
    16     7    38 1   
    17     8    26 ar  
    18     8    28 ar  
    19     9    21 ar  
    20     9    23 ar  
    21     9    39 1   
    22    10    12 1   
    23    10    21 ar  
    24    10    22 ar  
    25    11    22 ar  
    26    11    23 ar  
    27    11    40 1   
    28    12    20 1   
    29    12    41 1   
    30    12    42 1   
    31    13    14 1   
    32    13    24 1   
    33    13    25 1   
    34    13    43 1   
    35    14    44 1   
    36    14    45 1   
    37    14    46 1   
    38    15    26 ar  
    39    15    47 1   
    40    16    31 ar  
    41    16    48 1   
    42    17    18 2   
    43    17    19 1   
    44    17    22 1   
    45    17    64 2   
    46    19    20 1   
    47    19    49 1   
    48    19    50 1   
    49    20    51 1   
    50    20    52 1   
    51    21    53 1   
    52    23    24 1   
    53    24    54 1   
    54    25    55 1   
    55    25    56 1   
    56    25    57 1   
    57    27    28 ar  
    58    27    29 1   
    59    29    58 1   
    60    30    31 ar  
    61    30    59 1   
    62    31    32 1   
    63    32    33 2   
    64    32    34 1   
    65    34    35 1   
    66    34    60 1   
    67    35    61 1   
    68    35    62 1   
    69    35    63 1   
@<TRIPOS>SUBSTRUCTURE
     1 A1A         1 TEMP              0 ****  ****    0 ROOT
