@<TRIPOS>MOLECULE
A1A
   43    46     1     0     0
SMALL
abcg2


@<TRIPOS>ATOM
      1 N1          -0.3700    10.8820    -3.6000 nc         1 A1A      -0.041000
      2 N3           0.7270    12.4450    -2.7850 na         1 A1A      -0.211700
      3 C4          -0.0150    16.4510    -5.1090 ca         1 A1A      -0.148300
      4 C5          -0.3190    15.1640    -4.3840 c3         1 A1A       0.170000
      5 C6           0.7510    14.0920    -4.6760 c3         1 A1A      -0.123700
      6 C7           0.4170    12.8000    -4.0330 cd         1 A1A       0.396800
      7 C10         -0.3790    16.4700     0.8880 ca         1 A1A       0.132900
      8 C13         -3.4630    13.9190     0.1720 cc         1 A1A      -0.188200
      9 C15          1.1620    17.1630    -4.8730 ca         1 A1A      -0.056500
     10 O1          -2.2580    14.0530    -2.6200 o          1 A1A      -0.579100
     11 C9          -1.3870    15.2510    -0.7660 ca         1 A1A       0.105500
     12 C14         -2.3260    14.7800     0.1440 ca         1 A1A      -0.137800
     13 C12         -3.9120    13.9280     1.4590 cd         1 A1A      -0.154100
     14 N7          -3.1260    14.7400     2.2350 na         1 A1A      -0.322400
     15 C11         -2.1530    15.2730     1.4650 ca         1 A1A       0.115500
     16 N6          -1.2040    16.1040     1.8550 nb         1 A1A      -0.175000
     17 N5          -0.4290    16.0860    -0.3830 nb         1 A1A      -0.225000
     18 N4          -0.4560    15.3910    -2.9610 ns         1 A1A      -0.499900
     19 N2           0.2250    11.2490    -2.5350 nd         1 A1A      -0.203800
     20 N           -0.2730    11.8110    -4.5510 nc         1 A1A      -0.379000
     21 C3          -0.9090    16.9630    -6.0380 ca         1 A1A      -0.056500
     22 C2          -0.6550    18.1460    -6.7220 ca         1 A1A      -0.172000
     23 C16          1.4300    18.3430    -5.5390 ca         1 A1A      -0.172000
     24 C1           0.5210    18.8480    -6.4730 ca         1 A1A       0.153100
     25 O            0.8650    20.0010    -7.0740 os         1 A1A      -0.339100
     26 C           -0.0060    20.5400    -8.0480 c3         1 A1A       0.146900
     27 H1           1.2530    12.9470    -2.0820 hn         1 A1A       0.384000
     28 H           -1.2760    14.7830    -4.7420 h1         1 A1A       0.096700
     29 H9           0.8090    13.9410    -5.7540 hc         1 A1A       0.075700
     30 H8           1.7300    14.4370    -4.3370 hc         1 A1A       0.075700
     31 H13         -3.8950    13.3670    -0.6430 ha         1 A1A       0.237000
     32 H14          1.8900    16.7980    -4.1570 ha         1 A1A       0.114500
     33 H12         -4.7500    13.4080     1.8950 h4         1 A1A       0.223000
     34 H2          -3.2510    14.9090     3.2210 hn         1 A1A       0.367000
     35 H10          0.1940    16.0070    -2.4890 hn         1 A1A       0.342500
     36 H7          -1.8320    16.4340    -6.2440 ha         1 A1A       0.114500
     37 H6          -1.3850    18.5010    -7.4370 ha         1 A1A       0.126000
     38 H15          2.3480    18.8820    -5.3420 ha         1 A1A       0.126000
     39 H5           0.4600    21.4540    -8.4070 h1         1 A1A       0.043033
     40 H4          -0.1450    19.8590    -8.8920 h1         1 A1A       0.043033
     41 H3          -0.9860    20.7860    -7.6300 h1         1 A1A       0.043033
     42 C8          -1.4150    14.8350    -2.2090 c          1 A1A       0.499600
     43 H11          0.4200    17.1500     1.1570 h5         1 A1A       0.052100
@<TRIPOS>BOND
     1     1    19 2   
     2     1    20 1   
     3     2     6 1   
     4     2    19 1   
     5     2    27 1   
     6     3     4 1   
     7     3     9 ar  
     8     3    21 ar  
     9     4     5 1   
    10     4    18 1   
    11     4    28 1   
    12     5     6 1   
    13     5    29 1   
    14     5    30 1   
    15     6    20 2   
    16     7    16 ar  
    17     7    17 ar  
    18     7    43 1   
    19     8    12 1   
    20     8    13 2   
    21     8    31 1   
    22     9    23 ar  
    23     9    32 1   
    24    10    42 2   
    25    11    12 ar  
    26    11    17 ar  
    27    11    42 1   
    28    12    15 ar  
    29    13    14 1   
    30    13    33 1   
    31    14    15 1   
    32    14    34 1   
    33    15    16 ar  
    34    18    35 1   
    35    18    42 1   
    36    21    22 ar  
    37    21    36 1   
    38    22    24 ar  
    39    22    37 1   
    40    23    24 ar  
    41    23    38 1   
    42    24    25 1   
    43    25    26 1   
    44    26    39 1   
    45    26    40 1   
    46    26    41 1   
@<TRIPOS>SUBSTRUCTURE
     1 A1A         1 TEMP              0 ****  ****    0 ROOT
