@<TRIPOS>MOLECULE
A1A
   48    51     1     0     0
SMALL
No Charge or Current Charge


@<TRIPOS>ATOM
      1 N1           0.0070    14.5210    -0.7830 nb         1 A1A      -0.301000
      2 N3          -3.5160    14.9060     1.3160 na         1 A1A      -0.316400
      3 C4          -1.1710    14.0130    -1.1970 ca         1 A1A       0.434900
      4 C5          -0.0080    15.1930     0.3940 ca         1 A1A       0.176900
      5 C6          -2.2430    14.8860     0.7640 ca         1 A1A       0.145500
      6 C7          -4.4460    14.2230     0.4990 cc         1 A1A      -0.176100
      7 C8          -3.6930    13.7830    -0.5750 cd         1 A1A      -0.205200
      8 C10          0.0180    14.6330    -4.0480 ca         1 A1A      -0.111300
      9 C13          0.3840    17.2050    -5.1980 ca         1 A1A       0.011700
     10 C15         -1.0410    15.2700    -4.7240 ca         1 A1A      -0.007000
     11 C17         -0.5630    19.4540    -6.1410 c6         1 A1A      -0.055400
     12 S           -2.2750    17.2960    -6.1360 sy         1 A1A       1.048500
     13 O           -2.7920    16.3340    -7.1190 o          1 A1A      -0.523000
     14 C16         -1.5680    18.6940    -7.0310 c6         1 A1A      -0.305400
     15 C18          0.6730    18.5800    -5.8260 c6         1 A1A      -0.049100
     16 C12          1.4370    16.5600    -4.5210 ca         1 A1A      -0.131000
     17 C11          1.2580    15.2900    -3.9480 ca         1 A1A      -0.029000
     18 C14         -0.8660    16.5450    -5.3010 ca         1 A1A      -0.244500
     19 C3          -0.1660    13.2470    -3.4250 c3         1 A1A       0.288800
     20 C1          -0.5070    12.1450    -4.4780 c3         1 A1A      -0.069700
     21 C2          -0.5870    10.7310    -3.8450 c3         1 A1A      -0.087600
     22 C            0.4970    12.1370    -5.6600 c3         1 A1A      -0.087600
     23 N           -1.2140    13.3170    -2.3960 nu         1 A1A      -0.921100
     24 C9          -2.3180    14.1920    -0.4160 ca         1 A1A      -0.256800
     25 N2          -1.0800    15.4050     1.1970 nb         1 A1A      -0.228000
     26 H1          -3.7370    15.3600     2.1970 hn         1 A1A       0.361000
     27 H10          0.9410    15.6060     0.7310 h5         1 A1A       0.041100
     28 H11         -5.5030    14.1150     0.7370 h4         1 A1A       0.217000
     29 H12         -4.0950    13.2120    -1.4110 ha         1 A1A       0.203000
     30 H15         -2.0060    14.7720    -4.7980 ha         1 A1A       0.125000
     31 H18         -0.2370    20.3710    -6.6530 hc         1 A1A       0.065200
     32 H19         -1.0430    19.7780    -5.2070 hc         1 A1A       0.065200
     33 H17         -1.0800    18.2750    -7.9200 h1         1 A1A       0.106200
     34 H16         -2.4140    19.3230    -7.3320 h1         1 A1A       0.106200
     35 H21          1.2450    18.4260    -6.7510 hc         1 A1A       0.063700
     36 H20          1.3390    19.1490    -5.1620 hc         1 A1A       0.063700
     37 H14          2.4070    17.0450    -4.4400 ha         1 A1A       0.116000
     38 H13          2.0880    14.8170    -3.4290 ha         1 A1A       0.125000
     39 H            0.7820    12.9530    -2.9500 h1         1 A1A       0.085700
     40 H5          -1.4940    12.3690    -4.9000 hc         1 A1A       0.049700
     41 H7          -1.3650    10.6810    -3.0740 hc         1 A1A       0.038700
     42 H6          -0.8300     9.9790    -4.6060 hc         1 A1A       0.038700
     43 H8           0.3690    10.4540    -3.3850 hc         1 A1A       0.038700
     44 H3           0.4780    13.0880    -6.2050 hc         1 A1A       0.038700
     45 H4           1.5190    11.9650    -5.3020 hc         1 A1A       0.038700
     46 H2           0.2470    11.3440    -6.3750 hc         1 A1A       0.038700
     47 H9          -2.1260    12.9390    -2.6350 hn         1 A1A       0.495000
     48 O1          -3.1640    17.8380    -5.1000 o          1 A1A      -0.523000
@<TRIPOS>BOND
     1     1     3 ar  
     2     1     4 ar  
     3     2     5 1   
     4     2     6 1   
     5     2    26 1   
     6     3    23 1   
     7     3    24 ar  
     8     4    25 ar  
     9     4    27 1   
    10     5    24 ar  
    11     5    25 ar  
    12     6     7 2   
    13     6    28 1   
    14     7    24 1   
    15     7    29 1   
    16     8    10 ar  
    17     8    17 ar  
    18     8    19 1   
    19     9    15 1   
    20     9    16 ar  
    21     9    18 ar  
    22    10    18 ar  
    23    10    30 1   
    24    11    14 1   
    25    11    15 1   
    26    11    31 1   
    27    11    32 1   
    28    12    13 2   
    29    12    14 1   
    30    12    18 1   
    31    12    48 2   
    32    14    33 1   
    33    14    34 1   
    34    15    35 1   
    35    15    36 1   
    36    16    17 ar  
    37    16    37 1   
    38    17    38 1   
    39    19    20 1   
    40    19    23 1   
    41    19    39 1   
    42    20    21 1   
    43    20    22 1   
    44    20    40 1   
    45    21    41 1   
    46    21    42 1   
    47    21    43 1   
    48    22    44 1   
    49    22    45 1   
    50    22    46 1   
    51    23    47 1   
@<TRIPOS>SUBSTRUCTURE
     1 A1A         1 TEMP              0 ****  ****    0 ROOT
