@<TRIPOS>MOLECULE
A1A
   59    63     1     0     0
SMALL
abcg2


@<TRIPOS>ATOM
      1 N1           4.2580   -14.7050    16.5660 nb         1 A1A      -0.306000
      2 N3           7.9950   -16.1270    16.4830 na         1 A1A      -0.310400
      3 C4           4.6190   -15.6900    17.3890 ca         1 A1A       0.442900
      4 C5           5.1650   -14.1990    15.7320 ca         1 A1A       0.182900
      5 C6           6.7790   -15.5380    16.4130 ca         1 A1A       0.155500
      6 C7           7.9720   -17.1190    17.4390 cc         1 A1A       0.003700
      7 C8           9.1420   -17.9260    17.6870 cc         1 A1A      -0.084800
      8 C13          6.7180   -17.1690    17.9950 cd         1 A1A      -0.177200
      9 C15          2.1410   -14.5410    19.0710 ca         1 A1A      -0.109300
     10 C17          1.5030   -12.2150    19.2290 ca         1 A1A      -0.132000
     11 C20          2.4360   -14.5230    20.4250 ca         1 A1A      -0.005000
     12 C21          2.0060   -11.9750    23.5730 c6         1 A1A      -0.306400
     13 C22          2.3130   -10.7910    22.6730 c6         1 A1A      -0.055400
     14 S            2.7070   -13.4590    22.8810 sy         1 A1A       1.050500
     15 O            4.1650   -13.3720    22.9590 o          1 A1A      -0.522000
     16 C23          1.5590   -10.8980    21.3560 c6         1 A1A      -0.049100
     17 C18          1.7930   -12.1750    20.5910 ca         1 A1A       0.012700
     18 C16          1.6730   -13.3700    18.4850 ca         1 A1A      -0.028000
     19 C19          2.2520   -13.3590    21.1660 ca         1 A1A      -0.246500
     20 C3           2.3160   -15.8030    18.2510 c3         1 A1A       0.289800
     21 C1           1.4300   -16.9610    18.7410 c3         1 A1A      -0.071700
     22 C2           1.5910   -18.1860    17.8450 c3         1 A1A      -0.088600
     23 C           -0.0320   -16.5290    18.7880 c3         1 A1A      -0.088600
     24 N            3.7030   -16.2180    18.2150 nu         1 A1A      -0.921100
     25 C14          5.9490   -16.1630    17.3490 ca         1 A1A      -0.259800
     26 N2           6.4280   -14.5470    15.5900 nb         1 A1A      -0.232000
     27 C11          9.3960   -18.7870    18.7470 cd         1 A1A      -0.079000
     28 C12          8.6240   -19.0870    19.8870 ch         1 A1A       0.342000
     29 N6           7.9890   -19.3270    20.8200 n1         1 A1A      -0.425000
     30 N5          10.6130   -19.3420    18.5360 na         1 A1A       0.164800
     31 N4          11.1600   -18.8980    17.4270 nd         1 A1A      -0.491800
     32 C9          10.2990   -18.0460    16.8990 cc         1 A1A       0.232900
     33 H1           8.7920   -15.8540    15.9280 hn         1 A1A       0.363000
     34 H10          4.8130   -13.3980    15.0900 h5         1 A1A       0.042100
     35 H13         12.2240   -20.5700    18.8930 h1         1 A1A       0.068033
     36 H14         11.5020   -19.8730    20.3550 h1         1 A1A       0.068033
     37 H12         10.6810   -21.1970    19.4990 h1         1 A1A       0.068033
     38 H15          6.3840   -17.8590    18.7530 ha         1 A1A       0.207000
     39 H17          1.1430   -11.3160    18.7430 ha         1 A1A       0.116000
     40 H18          2.8010   -15.4210    20.9100 ha         1 A1A       0.127000
     41 H20          0.9310   -12.1360    23.6790 h1         1 A1A       0.106200
     42 H19          2.4460   -11.8810    24.5680 h1         1 A1A       0.106200
     43 H21          2.0130    -9.8780    23.1890 hc         1 A1A       0.065700
     44 H22          3.3890   -10.7130    22.5030 hc         1 A1A       0.065700
     45 H23          0.4860   -10.8090    21.5550 hc         1 A1A       0.063700
     46 H24          1.8170   -10.0540    20.7150 hc         1 A1A       0.063700
     47 H16          1.4380   -13.3610    17.4280 ha         1 A1A       0.126000
     48 H            2.0150   -15.5770    17.2240 h1         1 A1A       0.083700
     49 H5           1.7420   -17.2310    19.7570 hc         1 A1A       0.051700
     50 H6           2.6080   -18.5760    17.8460 hc         1 A1A       0.039033
     51 H8           0.9330   -18.9890    18.1790 hc         1 A1A       0.039033
     52 H7           1.3260   -17.9480    16.8120 hc         1 A1A       0.039033
     53 H2          -0.2030   -15.7150    19.4910 hc         1 A1A       0.039033
     54 H3          -0.3710   -16.1990    17.8030 hc         1 A1A       0.039033
     55 H4          -0.6640   -17.3640    19.0930 hc         1 A1A       0.039033
     56 H9           4.0100   -16.9090    18.8810 hn         1 A1A       0.501000
     57 H11         10.5280   -17.5550    15.9650 h4         1 A1A       0.044100
     58 C10         11.2910   -20.3030    19.3780 c3         1 A1A       0.064900
     59 O1           2.0630   -14.6270    23.4780 o          1 A1A      -0.522000
@<TRIPOS>BOND
     1     1     3 ar  
     2     1     4 ar  
     3     2     5 1   
     4     2     6 1   
     5     2    33 1   
     6     3    24 1   
     7     3    25 ar  
     8     4    26 ar  
     9     4    34 1   
    10     5    25 ar  
    11     5    26 ar  
    12     6     7 1   
    13     6     8 2   
    14     7    27 2   
    15     7    32 1   
    16     8    25 1   
    17     8    38 1   
    18     9    11 ar  
    19     9    18 ar  
    20     9    20 1   
    21    10    17 ar  
    22    10    18 ar  
    23    10    39 1   
    24    11    19 ar  
    25    11    40 1   
    26    12    13 1   
    27    12    14 1   
    28    12    41 1   
    29    12    42 1   
    30    13    16 1   
    31    13    43 1   
    32    13    44 1   
    33    14    15 2   
    34    14    19 1   
    35    14    59 2   
    36    16    17 1   
    37    16    45 1   
    38    16    46 1   
    39    17    19 ar  
    40    18    47 1   
    41    20    21 1   
    42    20    24 1   
    43    20    48 1   
    44    21    22 1   
    45    21    23 1   
    46    21    49 1   
    47    22    50 1   
    48    22    51 1   
    49    22    52 1   
    50    23    53 1   
    51    23    54 1   
    52    23    55 1   
    53    24    56 1   
    54    27    28 1   
    55    27    30 1   
    56    28    29 3   
    57    30    31 1   
    58    30    58 1   
    59    31    32 2   
    60    32    57 1   
    61    35    58 1   
    62    36    58 1   
    63    37    58 1   
@<TRIPOS>SUBSTRUCTURE
     1 A1A         1 TEMP              0 ****  ****    0 ROOT
