@<TRIPOS>MOLECULE
A1A
   63    67     1     0     0
SMALL
abcg2


@<TRIPOS>ATOM
      1 N1           3.4600   -16.2260    18.4050 nu         1 A1A      -0.925100
      2 N3           6.2780   -14.5890    15.8600 nb         1 A1A      -0.230000
      3 C4           8.8860   -17.9950    18.0870 cc         1 A1A      -0.112800
      4 C5           7.7480   -17.1640    17.7670 cc         1 A1A       0.015700
      5 C6           6.4760   -17.2050    18.2810 cd         1 A1A      -0.191200
      6 C7           5.7320   -16.1950    17.6090 ca         1 A1A      -0.254800
      7 C8           4.4070   -15.7120    17.6030 ca         1 A1A       0.437900
      8 C10          1.8970   -14.5030    19.1660 ca         1 A1A      -0.107300
      9 C13          1.5390   -12.0810    20.5940 ca         1 A1A       0.012700
     10 C15          2.1970   -14.4300    20.5160 ca         1 A1A      -0.005000
     11 C17          2.0760   -10.6140    22.6100 c6         1 A1A      -0.054400
     12 C22          5.0120   -14.2360    15.9530 ca         1 A1A       0.177900
     13 C24         10.1570   -17.9030    17.6120 cd         1 A1A       0.129900
     14 S            2.4690   -13.2720    22.9280 sy         1 A1A       1.049500
     15 O            1.8250   -14.4150    23.5710 o          1 A1A      -0.523000
     16 C16          1.7770   -11.7580    23.5630 c6         1 A1A      -0.306400
     17 C18          1.3080   -10.7760    21.3080 c6         1 A1A      -0.049100
     18 C12          1.2420   -12.1770    19.2350 ca         1 A1A      -0.132000
     19 C11          1.4170   -13.3580    18.5370 ca         1 A1A      -0.028000
     20 C14          2.0090   -13.2400    21.2120 ca         1 A1A      -0.246500
     21 C9           2.0770   -15.7950    18.3960 c3         1 A1A       0.290800
     22 C19          1.1690   -16.9240    18.9140 c3         1 A1A      -0.071700
     23 N2           4.0750   -14.7320    16.7610 nb         1 A1A      -0.304000
     24 C23          6.5970   -15.5760    16.7010 ca         1 A1A       0.150500
     25 N4           7.8090   -16.1690    16.8160 na         1 A1A      -0.313400
     26 C3           8.8930   -19.1270    18.9700 cc         1 A1A      -0.168000
     27 O2          10.9240   -18.8790    18.1310 os         1 A1A      -0.209000
     28 C2          10.1510   -19.6230    18.9540 cd         1 A1A       0.136300
     29 C1          10.7820   -20.7850    19.6370 c3         1 A1A       0.132500
     30 N           11.3050   -21.7470    18.6850 n7         1 A1A      -0.855400
     31 C           10.2700   -22.4890    17.9940 c3         1 A1A       0.141100
     32 H10          3.7410   -16.9070    19.0930 hn         1 A1A       0.499000
     33 H9           6.1280   -17.8830    19.0440 ha         1 A1A       0.202000
     34 H13          2.5730   -15.3060    21.0330 ha         1 A1A       0.126000
     35 H16          1.7850    -9.6800    23.0900 hc         1 A1A       0.065700
     36 H17          3.1500   -10.5470    22.4250 hc         1 A1A       0.065700
     37 H22          0.6640   -18.9690    18.4290 hc         1 A1A       0.038867
     38 H21          1.0820   -17.9880    17.0260 hc         1 A1A       0.038867
     39 H23          2.3460   -18.5820    18.1010 hc         1 A1A       0.038867
     40 H25         -0.9330   -17.2940    19.2460 hc         1 A1A       0.038867
     41 H26         -0.4630   -15.6350    19.5880 hc         1 A1A       0.038867
     42 H24         -0.6090   -16.1820    17.9180 hc         1 A1A       0.038867
     43 H27          4.6840   -13.4410    15.2920 h5         1 A1A       0.041100
     44 H28         10.6380   -17.2230    16.9270 h4         1 A1A       0.052100
     45 H15          0.7030   -11.9130    23.6850 h1         1 A1A       0.106200
     46 H14          2.2270   -11.6230    24.5490 h1         1 A1A       0.106200
     47 H18          0.2360   -10.6830    21.5160 hc         1 A1A       0.063700
     48 H19          1.5540    -9.9570    20.6310 hc         1 A1A       0.063700
     49 H12          0.8750   -11.3000    18.7170 ha         1 A1A       0.116000
     50 H11          1.1770   -13.3930    17.4810 ha         1 A1A       0.125000
     51 H            1.7970   -15.6050    17.3560 h1         1 A1A       0.082700
     52 H20          1.4620   -17.1540    19.9460 hc         1 A1A       0.050700
     53 H1           8.6130   -15.9260    16.2590 hn         1 A1A       0.360000
     54 H8           8.0600   -19.5230    19.5290 ha         1 A1A       0.143000
     55 H6          10.0280   -21.2070    20.3180 h1         1 A1A       0.048700
     56 H7          11.6110   -20.4400    20.2610 h1         1 A1A       0.048700
     57 H5          11.9070   -22.3920    19.1800 hn         1 A1A       0.415000
     58 H2          10.7260   -23.2590    17.3730 h1         1 A1A       0.033033
     59 H4           9.5470   -22.9750    18.6630 h1         1 A1A       0.033033
     60 H3           9.7080   -21.8280    17.3320 h1         1 A1A       0.033033
     61 C20          1.3320   -18.1850    18.0710 c3         1 A1A      -0.088100
     62 C21         -0.2880   -16.4770    18.9190 c3         1 A1A      -0.088100
     63 O1           3.9280   -13.1870    22.9980 o          1 A1A      -0.523000
@<TRIPOS>BOND
     1     1     7 1   
     2     1    21 1   
     3     1    32 1   
     4     2    12 ar  
     5     2    24 ar  
     6     3     4 1   
     7     3    13 2   
     8     3    26 1   
     9     4     5 2   
    10     4    25 1   
    11     5     6 1   
    12     5    33 1   
    13     6     7 ar  
    14     6    24 ar  
    15     7    23 ar  
    16     8    10 ar  
    17     8    19 ar  
    18     8    21 1   
    19     9    17 1   
    20     9    18 ar  
    21     9    20 ar  
    22    10    20 ar  
    23    10    34 1   
    24    11    16 1   
    25    11    17 1   
    26    11    35 1   
    27    11    36 1   
    28    12    23 ar  
    29    12    43 1   
    30    13    27 1   
    31    13    44 1   
    32    14    15 2   
    33    14    16 1   
    34    14    20 1   
    35    14    63 2   
    36    16    45 1   
    37    16    46 1   
    38    17    47 1   
    39    17    48 1   
    40    18    19 ar  
    41    18    49 1   
    42    19    50 1   
    43    21    22 1   
    44    21    51 1   
    45    22    52 1   
    46    22    61 1   
    47    22    62 1   
    48    24    25 1   
    49    25    53 1   
    50    26    28 2   
    51    26    54 1   
    52    27    28 1   
    53    28    29 1   
    54    29    30 1   
    55    29    55 1   
    56    29    56 1   
    57    30    31 1   
    58    30    57 1   
    59    31    58 1   
    60    31    59 1   
    61    31    60 1   
    62    37    61 1   
    63    38    61 1   
    64    39    61 1   
    65    40    62 1   
    66    41    62 1   
    67    42    62 1   
@<TRIPOS>SUBSTRUCTURE
     1 A1A         1 TEMP              0 ****  ****    0 ROOT
