@<TRIPOS>MOLECULE
A1A
   37    40     1     0     0
SMALL
No Charge or Current Charge


@<TRIPOS>ATOM
      1 N1           1.2040    12.1270    -6.7060 nb         1 A1A      -0.303000
      2 N3          -0.8610     9.1050    -8.5920 na         1 A1A      -0.327400
      3 C4          -0.0860    10.1640    -8.1440 ca         1 A1A       0.146500
      4 C5          -1.6000     8.5220    -7.5380 cc         1 A1A      -0.223100
      5 C6          -1.2480     9.2650    -6.4250 cd         1 A1A      -0.180200
      6 C7          -0.3030    10.2910    -6.7970 ca         1 A1A      -0.272800
      7 C8          -0.0620    13.8960    -4.2770 ca         1 A1A      -0.019300
      8 C10         -2.0790    15.2330    -4.6450 ca         1 A1A      -0.115000
      9 C13          0.7250    14.9740    -4.7320 ca         1 A1A      -0.080000
     10 C15         -1.1110    18.3980    -6.2880 c6         1 A1A       0.121600
     11 C            0.3760    12.3420    -2.2960 c          1 A1A       0.724000
     12 O1           1.1100    12.9150    -1.5000 o          1 A1A      -0.706500
     13 C1           0.6050    12.5890    -3.8390 c3         1 A1A       0.108800
     14 C2           0.3560    11.2920    -6.0730 ca         1 A1A       0.439900
     15 N2           0.7540    10.9860    -8.7980 nb         1 A1A      -0.281000
     16 C3           1.3600    11.9320    -8.0380 ca         1 A1A       0.180900
     17 C12          0.1190    16.1750    -5.1350 ca         1 A1A       0.045100
     18 O2           0.9110    17.2250    -5.5570 os         1 A1A      -0.335100
     19 C14          0.2930    18.5270    -5.6550 c6         1 A1A       0.122600
     20 O3          -1.9080    17.4610    -5.5290 os         1 A1A      -0.342100
     21 C11         -1.2930    16.3000    -5.1070 ca         1 A1A       0.023100
     22 C9          -1.4660    14.0360    -4.2330 ca         1 A1A      -0.099000
     23 H1          -0.8840     8.7990    -9.5600 hn         1 A1A       0.344000
     24 H5          -2.2750     7.6770    -7.6610 h4         1 A1A       0.200000
     25 H6          -1.6370     9.0880    -5.4230 ha         1 A1A       0.206000
     26 H8          -3.1610    15.3280    -4.6160 ha         1 A1A       0.108000
     27 H9           1.8070    14.8840    -4.7690 ha         1 A1A       0.131000
     28 H12         -1.6180    19.3720    -6.3120 h1         1 A1A       0.050200
     29 H13         -1.0150    18.0310    -7.3190 h1         1 A1A       0.050200
     30 H            1.6920    12.7020    -3.9510 h1         1 A1A       0.071700
     31 H4           2.0440    12.6050    -8.5520 h5         1 A1A       0.027100
     32 H10          0.2020    18.9550    -4.6470 h1         1 A1A       0.053200
     33 H11          0.9310    19.1890    -6.2570 h1         1 A1A       0.053200
     34 H7          -2.0830    13.2110    -3.8860 ha         1 A1A       0.121000
     35 N            0.1590    11.4500    -4.7090 nu         1 A1A      -0.869100
     36 H3          -0.4750    10.7750    -4.2810 hn         1 A1A       0.531000
     37 O           -0.5140    11.5710    -1.9490 o          1 A1A      -0.706500
@<TRIPOS>BOND
     1     1    14 ar  
     2     1    16 ar  
     3     2     3 1   
     4     2     4 1   
     5     2    23 1   
     6     3     6 ar  
     7     3    15 ar  
     8     4     5 2   
     9     4    24 1   
    10     5     6 1   
    11     5    25 1   
    12     6    14 ar  
    13     7     9 ar  
    14     7    13 1   
    15     7    22 ar  
    16     8    21 ar  
    17     8    22 ar  
    18     8    26 1   
    19     9    17 ar  
    20     9    27 1   
    21    10    19 1   
    22    10    20 1   
    23    10    28 1   
    24    10    29 1   
    25    11    12 1   
    26    11    13 1   
    27    11    37 1   
    28    13    30 1   
    29    13    35 1   
    30    14    35 1   
    31    15    16 ar  
    32    16    31 1   
    33    17    18 1   
    34    17    21 ar  
    35    18    19 1   
    36    19    32 1   
    37    19    33 1   
    38    20    21 1   
    39    22    34 1   
    40    35    36 1   
@<TRIPOS>SUBSTRUCTURE
     1 A1A         1 TEMP              0 ****  ****    0 ROOT
