@<TRIPOS>MOLECULE
A1A
   21    22     1     0     0
SMALL
No Charge or Current Charge


@<TRIPOS>ATOM
      1 N1          -9.1640     4.5500    -8.3350 na         1 A1A       0.132800
      2 C4          -9.6270     2.1890    -7.7040 c6         1 A1A       0.133800
      3 C5          -9.0170     2.6590   -10.0670 c6         1 A1A       0.218100
      4 C6          -8.9960     4.1050    -9.6370 cc         1 A1A      -0.186300
      5 C1          -8.8630     5.2400   -10.3840 cd         1 A1A      -0.186300
      6 N           -9.1340     5.9240    -8.2180 nc         1 A1A      -0.519800
      7 C2          -8.9540     6.3150    -9.4680 cd         1 A1A       0.242900
      8 N2          -8.7740     1.8050    -8.8710 n7         1 A1A      -0.848400
      9 C3          -9.3150     3.6270    -7.1950 c6         1 A1A       0.043600
     10 H7          -9.4820     1.4750    -6.8790 h1         1 A1A       0.068200
     11 H6         -10.6880     2.1340    -7.9960 h1         1 A1A       0.068200
     12 H10         -8.2520     2.4610   -10.8340 h1         1 A1A       0.070700
     13 H9          -9.9960     2.4130   -10.5060 h1         1 A1A       0.070700
     14 H1          -7.7270     4.8800   -12.1820 hc         1 A1A       0.036700
     15 H2          -9.4850     4.8520   -12.4140 hc         1 A1A       0.036700
     16 H           -8.6440     6.3960   -12.1970 hc         1 A1A       0.036700
     17 H3          -8.8940     7.3750    -9.6840 h4         1 A1A       0.036100
     18 H11         -7.7890     1.9170    -8.5980 hn         1 A1A       0.415000
     19 H5          -8.3750     3.6220    -6.6260 h1         1 A1A       0.067700
     20 H4         -10.1170     3.9780    -6.5330 h1         1 A1A       0.067700
     21 C           -8.6690     5.3490   -11.8740 c3         1 A1A      -0.005800
@<TRIPOS>BOND
     1     1     4 1   
     2     1     6 1   
     3     1     9 1   
     4     2     8 1   
     5     2     9 1   
     6     2    10 1   
     7     2    11 1   
     8     3     4 1   
     9     3     8 1   
    10     3    12 1   
    11     3    13 1   
    12     4     5 2   
    13     5     7 1   
    14     5    21 1   
    15     6     7 2   
    16     7    17 1   
    17     8    18 1   
    18     9    19 1   
    19     9    20 1   
    20    14    21 1   
    21    15    21 1   
    22    16    21 1   
@<TRIPOS>SUBSTRUCTURE
     1 A1A         1 TEMP              0 ****  ****    0 ROOT
