@<TRIPOS>MOLECULE
A1A
   65    69     1     0     0
SMALL
No Charge or Current Charge


@<TRIPOS>ATOM
      1 N1          10.2340   -19.1380    19.7660 na         1 A1A       0.143800
      2 N3           4.2730   -14.7740    16.4120 nb         1 A1A      -0.298000
      3 C4           9.0860   -17.7050    18.5990 cc         1 A1A      -0.159800
      4 C5           8.0290   -16.9390    18.0100 cc         1 A1A       0.037700
      5 C6           6.6730   -17.0620    18.2290 cd         1 A1A      -0.209200
      6 C7           5.9830   -16.0800    17.4200 ca         1 A1A      -0.247800
      7 C8           4.6300   -15.7630    17.2550 ca         1 A1A       0.429900
      8 C10          2.1150   -14.7710    18.8610 ca         1 A1A      -0.107300
      9 C13          1.9050   -12.3410    20.3160 ca         1 A1A       0.012700
     10 C15          2.5820   -14.6910    20.1870 ca         1 A1A      -0.009000
     11 C17          2.6220   -10.7740    22.2850 c6         1 A1A      -0.055400
     12 C22          5.2820   -14.1360    15.7680 ca         1 A1A       0.173900
     13 C24         10.4620   -17.5700    18.3690 cc         1 A1A       0.258900
     14 S            3.1140   -13.4660    22.6030 sy         1 A1A       1.050500
     15 O1           2.5110   -14.5870    23.3360 o          1 A1A      -0.523000
     16 C16          2.4760   -11.9280    23.2980 c6         1 A1A      -0.306400
     17 C18          1.7210   -11.0000    21.0490 c6         1 A1A      -0.049100
     18 C12          1.4390   -12.4320    18.9910 ca         1 A1A      -0.131000
     19 C11          1.5450   -13.6310    18.2670 ca         1 A1A      -0.030000
     20 C14          2.4780   -13.4890    20.9180 ca         1 A1A      -0.245500
     21 C9           2.2220   -16.0760    18.0660 c3         1 A1A       0.289800
     22 C19          1.4040   -17.2460    18.6990 c3         1 A1A      -0.070700
     23 N2           3.6390   -16.4480    17.9410 nu         1 A1A      -0.923100
     24 N4           6.6090   -14.3880    15.8820 nb         1 A1A      -0.226000
     25 C23          6.9440   -15.3810    16.7270 ca         1 A1A       0.148500
     26 N5           8.1820   -15.8980    17.0810 na         1 A1A      -0.310400
     27 C3           8.9270   -18.7130    19.5000 cd         1 A1A      -0.123000
     28 N6          11.1950   -18.4220    19.0580 nd         1 A1A      -0.516800
     29 C2          10.6270   -20.2170    20.6780 c3         1 A1A      -0.000400
     30 C1          10.4740   -21.5910    20.0320 c          1 A1A       0.582100
     31 O            9.5660   -22.3590    20.3190 o          1 A1A      -0.575100
     32 N           11.4330   -21.9130    19.0950 ns         1 A1A      -0.505900
     33 C           11.4730   -23.1750    18.3530 c3         1 A1A       0.094300
     34 H9           6.2140   -17.7810    18.9010 ha         1 A1A       0.198000
     35 H13          3.0330   -15.5670    20.6500 ha         1 A1A       0.126000
     36 H16          2.3480    -9.8240    22.7650 hc         1 A1A       0.066200
     37 H17          3.6710   -10.6680    21.9710 hc         1 A1A       0.066200
     38 H22         -0.6220   -17.6860    19.4110 hc         1 A1A       0.038533
     39 H23         -0.1200   -16.0160    19.7020 hc         1 A1A       0.038533
     40 H21         -0.5700   -16.5320    18.0620 hc         1 A1A       0.038533
     41 H25          0.8610   -19.3330    18.2980 hc         1 A1A       0.038533
     42 H24          1.0160   -18.3380    16.8350 hc         1 A1A       0.038533
     43 H26          2.4660   -18.8950    17.6980 hc         1 A1A       0.038533
     44 H27          4.9960   -13.3360    15.0880 h5         1 A1A       0.041100
     45 H28         10.9560   -16.8680    17.7100 h4         1 A1A       0.036100
     46 H15          1.4230   -12.1150    23.5440 h1         1 A1A       0.105700
     47 H14          3.0460   -11.7490    24.2170 h1         1 A1A       0.105700
     48 H18          0.6690   -10.9140    21.3560 hc         1 A1A       0.063200
     49 H19          1.8880   -10.1750    20.3430 hc         1 A1A       0.063200
     50 H12          0.9870   -11.5650    18.5150 ha         1 A1A       0.115000
     51 H11          1.1790   -13.6710    17.2440 ha         1 A1A       0.123000
     52 H            1.8080   -15.9030    17.0610 h1         1 A1A       0.085700
     53 H20          1.8590   -17.4950    19.6660 hc         1 A1A       0.049700
     54 H10          3.9750   -17.1990    18.5360 hn         1 A1A       0.494000
     55 H1           9.0650   -15.5650    16.7160 hn         1 A1A       0.362000
     56 H8           8.0460   -19.1490    19.9550 h4         1 A1A       0.160000
     57 H6           9.9970   -20.1800    21.5740 h1         1 A1A       0.080200
     58 H7          11.6730   -20.0840    20.9780 h1         1 A1A       0.080200
     59 H5          12.1380   -21.2090    18.8990 hn         1 A1A       0.316500
     60 H2          12.3360   -23.1750    17.6740 h1         1 A1A       0.044033
     61 H4          11.5650   -24.0150    19.0540 h1         1 A1A       0.044033
     62 H3          10.5520   -23.2890    17.7660 h1         1 A1A       0.044033
     63 C20         -0.0650   -16.8430    18.9840 c3         1 A1A      -0.087600
     64 C21          1.4410   -18.5290    17.8280 c3         1 A1A      -0.087600
     65 O2           4.5750   -13.3420    22.5220 o          1 A1A      -0.523000
@<TRIPOS>BOND
     1     1    27 1   
     2     1    28 1   
     3     1    29 1   
     4     2     7 ar  
     5     2    12 ar  
     6     3     4 1   
     7     3    13 1   
     8     3    27 2   
     9     4     5 2   
    10     4    26 1   
    11     5     6 1   
    12     5    34 1   
    13     6     7 ar  
    14     6    25 ar  
    15     7    23 1   
    16     8    10 ar  
    17     8    19 ar  
    18     8    21 1   
    19     9    17 1   
    20     9    18 ar  
    21     9    20 ar  
    22    10    20 ar  
    23    10    35 1   
    24    11    16 1   
    25    11    17 1   
    26    11    36 1   
    27    11    37 1   
    28    12    24 ar  
    29    12    44 1   
    30    13    28 2   
    31    13    45 1   
    32    14    15 2   
    33    14    16 1   
    34    14    20 1   
    35    14    65 2   
    36    16    46 1   
    37    16    47 1   
    38    17    48 1   
    39    17    49 1   
    40    18    19 ar  
    41    18    50 1   
    42    19    51 1   
    43    21    22 1   
    44    21    23 1   
    45    21    52 1   
    46    22    53 1   
    47    22    63 1   
    48    22    64 1   
    49    23    54 1   
    50    24    25 ar  
    51    25    26 1   
    52    26    55 1   
    53    27    56 1   
    54    29    30 1   
    55    29    57 1   
    56    29    58 1   
    57    30    31 2   
    58    30    32 1   
    59    32    33 1   
    60    32    59 1   
    61    33    60 1   
    62    33    61 1   
    63    33    62 1   
    64    38    63 1   
    65    39    63 1   
    66    40    63 1   
    67    41    64 1   
    68    42    64 1   
    69    43    64 1   
@<TRIPOS>SUBSTRUCTURE
     1 A1A         1 TEMP              0 ****  ****    0 ROOT
