@<TRIPOS>MOLECULE
A1A
   44    46     1     0     0
SMALL
No Charge or Current Charge


@<TRIPOS>ATOM
      1 N1          -1.6810    14.1030    -3.3320 ns         1 A1A      -0.489900
      2 N3          -0.7050    15.0290     1.5600 nb         1 A1A      -0.208000
      3 C4          -2.9610    11.5760    -4.6810 ca         1 A1A      -0.106000
      4 C5          -1.8780    12.3890    -5.0740 ca         1 A1A      -0.023300
      5 C6          -1.8620    13.8880    -4.7680 c3         1 A1A       0.163000
      6 C7          -3.1180    14.6170    -5.2970 c3         1 A1A      -0.223400
      7 C8          -2.9500    16.1340    -5.1670 c          1 A1A       0.721000
      8 C10         -0.7050    14.9330    -1.2350 ca         1 A1A       0.132500
      9 C13         -4.1010    15.0230     0.2810 cc         1 A1A      -0.178100
     10 C15         -1.9070    14.9520    -0.4860 ca         1 A1A      -0.168800
     11 O4           0.2610    15.2900    -3.4160 o          1 A1A      -0.600100
     12 C9          -0.6500    14.8130    -2.7480 c          1 A1A       0.498600
     13 C14         -3.3070    14.9970    -0.8520 cd         1 A1A      -0.169200
     14 N4          -3.1780    15.0090     1.3490 na         1 A1A      -0.333400
     15 C12         -1.8700    14.9910     0.8890 ca         1 A1A       0.110500
     16 C11          0.4120    15.0290     0.7950 ca         1 A1A       0.119900
     17 N2           0.4720    14.9830    -0.5590 nb         1 A1A      -0.176000
     18 O3          -3.3830    16.6810    -4.1640 o          1 A1A      -0.727500
     19 O2          -2.3960    16.7290    -6.0790 o          1 A1A      -0.727500
     20 C3          -2.9510    10.2000    -4.9590 ca         1 A1A      -0.090000
     21 C2          -1.8590     9.6280    -5.6310 ca         1 A1A      -0.166000
     22 C16         -0.7850    11.7990    -5.7430 ca         1 A1A      -0.143000
     23 C1          -0.7720    10.4200    -6.0320 ca         1 A1A       0.285000
     24 N            0.2810     9.7950    -6.6930 nu         1 A1A      -0.907100
     25 S            1.3810    10.4250    -7.7630 s6         1 A1A       1.219100
     26 O            2.1560    11.4270    -7.0300 o          1 A1A      -0.537000
     27 O1           2.0380     9.2570    -8.3510 o          1 A1A      -0.537000
     28 C            0.4000    11.2220    -9.0160 c3         1 A1A      -0.378100
     29 H12         -2.3430    13.6750    -2.6970 hn         1 A1A       0.387500
     30 H8          -3.8110    12.0050    -4.1550 ha         1 A1A       0.128000
     31 H           -1.0010    14.3200    -5.2950 h1         1 A1A       0.056700
     32 H9          -3.1830    14.3400    -6.3560 hc         1 A1A       0.035700
     33 H10         -3.9690    14.2740    -4.6970 hc         1 A1A       0.035700
     34 H14         -5.1800    15.0760     0.4090 h4         1 A1A       0.214000
     35 H15         -3.7080    15.0760    -1.8630 ha         1 A1A       0.255000
     36 H1          -3.4270    15.0290     2.3340 hn         1 A1A       0.351000
     37 H13          1.3630    15.0640     1.3230 h5         1 A1A       0.037100
     38 H7          -3.7880     9.5770    -4.6510 ha         1 A1A       0.102000
     39 H6          -1.8620     8.5610    -5.8390 ha         1 A1A       0.099000
     40 H16          0.0540    12.4250    -6.0250 ha         1 A1A       0.134000
     41 H5           0.1550     8.8320    -6.9720 hn         1 A1A       0.494000
     42 H4          -0.2590    10.4650    -9.4520 h1         1 A1A       0.103700
     43 H3          -0.1740    12.0200    -8.5350 h1         1 A1A       0.103700
     44 H2           1.0900    11.6250    -9.7630 h1         1 A1A       0.103700
@<TRIPOS>BOND
     1     1     5 1   
     2     1    12 1   
     3     1    29 1   
     4     2    15 ar  
     5     2    16 ar  
     6     3     4 ar  
     7     3    20 ar  
     8     3    30 1   
     9     4     5 1   
    10     4    22 ar  
    11     5     6 1   
    12     5    31 1   
    13     6     7 1   
    14     6    32 1   
    15     6    33 1   
    16     7    18 1   
    17     7    19 1   
    18     8    10 ar  
    19     8    12 1   
    20     8    17 ar  
    21     9    13 2   
    22     9    14 1   
    23     9    34 1   
    24    10    13 1   
    25    10    15 ar  
    26    11    12 2   
    27    13    35 1   
    28    14    15 1   
    29    14    36 1   
    30    16    17 ar  
    31    16    37 1   
    32    20    21 ar  
    33    20    38 1   
    34    21    23 ar  
    35    21    39 1   
    36    22    23 ar  
    37    22    40 1   
    38    23    24 1   
    39    24    25 1   
    40    24    41 1   
    41    25    26 2   
    42    25    27 2   
    43    25    28 1   
    44    28    42 1   
    45    28    43 1   
    46    28    44 1   
@<TRIPOS>SUBSTRUCTURE
     1 A1A         1 TEMP              0 ****  ****    0 ROOT
