@<TRIPOS>MOLECULE
A1A
   36    38     1     0     0
SMALL
abcg2


@<TRIPOS>ATOM
      1 N1          -0.5690    15.1280     0.2870 nb         1 A1A      -0.199000
      2 N3          -3.9220    15.6150     2.3970 na         1 A1A      -0.330400
      3 C4          -1.7300    15.3250    -0.3250 ca         1 A1A       0.133500
      4 C5          -0.5360    15.1010     1.6160 ca         1 A1A       0.138900
      5 C6          -2.7160    15.4420     1.8170 ca         1 A1A       0.113500
      6 C7          -4.8670    15.7860     1.4180 cc         1 A1A      -0.188100
      7 C8          -4.2890    15.7260     0.1850 cd         1 A1A      -0.170200
      8 C10         -0.1290    16.1730    -4.5360 ca         1 A1A      -0.080300
      9 C13          0.4180    18.4750    -5.9770 ca         1 A1A       0.144000
     10 C15         -0.7400    16.4080    -5.7620 ca         1 A1A      -0.075500
     11 F            0.6930    19.5880    -6.6790 f          1 A1A      -0.200000
     12 C12          1.0360    18.2840    -4.7550 ca         1 A1A      -0.161000
     13 C11          0.7560    17.1270    -4.0410 ca         1 A1A      -0.075500
     14 C14         -0.4740    17.5580    -6.4940 ca         1 A1A      -0.161000
     15 C2          -0.3760    14.8680    -3.8120 c3         1 A1A       0.165000
     16 C1           0.7610    13.8780    -4.0460 c3         1 A1A      -0.226400
     17 C            0.4740    12.4760    -3.4610 c          1 A1A       0.718000
     18 O1           1.4270    11.8990    -2.9050 o          1 A1A      -0.726500
     19 O           -0.6820    12.0370    -3.6220 o          1 A1A      -0.726500
     20 N           -0.5570    15.0460    -2.3870 ns         1 A1A      -0.448900
     21 C3          -1.7390    15.3160    -1.8280 c          1 A1A       0.505600
     22 O2          -2.7700    15.5260    -2.4500 o          1 A1A      -0.619100
     23 C9          -2.8970    15.5030     0.4090 ca         1 A1A      -0.148800
     24 N2          -1.5650    15.2460     2.4340 nb         1 A1A      -0.206000
     25 H1          -4.0990    15.6190     3.3900 hn         1 A1A       0.354000
     26 H6           0.4330    14.9390     2.0720 h5         1 A1A       0.046100
     27 H7          -5.9010    15.9370     1.6830 h4         1 A1A       0.208000
     28 H8          -4.7980    15.8290    -0.7560 ha         1 A1A       0.232000
     29 H12         -1.4370    15.6810    -6.1620 ha         1 A1A       0.121000
     30 H10          1.7250    19.0230    -4.3670 ha         1 A1A       0.117000
     31 H9           1.2400    16.9760    -3.0840 ha         1 A1A       0.121000
     32 H11         -0.9550    17.7350    -7.4480 ha         1 A1A       0.117000
     33 H           -1.2910    14.4240    -4.2090 h1         1 A1A       0.099700
     34 H3           1.6970    14.2860    -3.6510 hc         1 A1A       0.031200
     35 H4           0.9040    13.7810    -5.1280 hc         1 A1A       0.031200
     36 H5           0.2240    14.8940    -1.7640 hn         1 A1A       0.346500
@<TRIPOS>BOND
     1     1     3 ar  
     2     1     4 ar  
     3     2     5 1   
     4     2     6 1   
     5     2    25 1   
     6     3    21 1   
     7     3    23 ar  
     8     4    24 ar  
     9     4    26 1   
    10     5    23 ar  
    11     5    24 ar  
    12     6     7 2   
    13     6    27 1   
    14     7    23 1   
    15     7    28 1   
    16     8    10 ar  
    17     8    13 ar  
    18     8    15 1   
    19     9    11 1   
    20     9    12 ar  
    21     9    14 ar  
    22    10    14 ar  
    23    10    29 1   
    24    12    13 ar  
    25    12    30 1   
    26    13    31 1   
    27    14    32 1   
    28    15    16 1   
    29    15    20 1   
    30    15    33 1   
    31    16    17 1   
    32    16    34 1   
    33    16    35 1   
    34    17    18 1   
    35    17    19 1   
    36    20    21 1   
    37    20    36 1   
    38    21    22 2   
@<TRIPOS>SUBSTRUCTURE
     1 A1A         1 TEMP              0 ****  ****    0 ROOT
