@<TRIPOS>MOLECULE
A1A
   37    39     1     0     0
SMALL
No Charge or Current Charge


@<TRIPOS>ATOM
      1 N1          -4.6920    17.1330    -0.6380 na         1 A1A      -0.225700
      2 C4          -3.1550    13.6150    -2.0950 ca         1 A1A       0.282500
      3 C5          -4.4640    13.5200    -1.5350 ca         1 A1A      -0.095000
      4 C6          -5.0980    14.6650    -1.0010 ca         1 A1A      -0.114000
      5 C7          -4.3640    15.8520    -1.0650 ca         1 A1A      -0.092200
      6 C8          -3.6250    18.0190    -0.9180 cc         1 A1A      -0.175100
      7 C10         -3.1160    15.8600    -1.6180 ca         1 A1A       0.339800
      8 C13         -0.4060    12.5300    -7.4940 ca         1 A1A      -0.093500
      9 C15         -1.3930    10.3160    -7.2930 ca         1 A1A      -0.093500
     10 C14         -0.9990    11.4040    -8.0870 ca         1 A1A      -0.029900
     11 C12         -0.2050    12.5670    -6.1030 ca         1 A1A      -0.101500
     12 C16         -1.1920    10.3520    -5.9020 ca         1 A1A      -0.101500
     13 C11         -0.5930    11.4760    -5.2950 ca         1 A1A      -0.048300
     14 C2          -0.3850    11.5060    -3.7800 c3         1 A1A       0.164000
     15 C1           1.1010    11.6740    -3.3940 c3         1 A1A      -0.226400
     16 C            1.2770    11.4900    -1.8840 c          1 A1A       0.719000
     17 O1           1.4160    10.3540    -1.4590 o          1 A1A      -0.726500
     18 O            1.2460    12.4820    -1.1720 o          1 A1A      -0.726500
     19 N           -1.2160    12.5460    -3.1740 ns         1 A1A      -0.451900
     20 C3          -2.4890    12.3610    -2.6720 c          1 A1A       0.504600
     21 O2          -3.0320    11.2590    -2.7000 o          1 A1A      -0.631100
     22 N2          -2.4700    14.8060    -2.1380 nb         1 A1A      -0.609000
     23 C9          -2.6620    17.2160    -1.5220 cd         1 A1A      -0.330800
     24 H1          -5.5690    17.3910    -0.1920 hn         1 A1A       0.343000
     25 H6          -4.9780    12.5630    -1.5180 ha         1 A1A       0.144000
     26 H7          -6.0950    14.6230    -0.5680 ha         1 A1A       0.111000
     27 H8          -3.6420    19.0810    -0.6780 h4         1 A1A       0.206000
     28 H10          0.2490    13.4470    -5.6530 ha         1 A1A       0.122000
     29 H13         -1.5040     9.5050    -5.2950 ha         1 A1A       0.122000
     30 H           -0.7100    10.5360    -3.3760 h1         1 A1A       0.100700
     31 H3           1.4050    12.6830    -3.6990 hc         1 A1A       0.031200
     32 H4           1.6270    10.8750    -3.9300 hc         1 A1A       0.031200
     33 H5          -0.8440    13.4860    -3.0910 hn         1 A1A       0.347500
     34 H9          -1.6960    17.5610    -1.8760 ha         1 A1A       0.221000
     35 H11         -0.1040    13.3750    -8.1080 ha         1 A1A       0.115000
     36 Br          -1.2730    11.3550    -9.9780 br         1 A1A      -0.147100
     37 H12         -1.8540     9.4440    -7.7520 ha         1 A1A       0.115000
@<TRIPOS>BOND
     1     1     5 1   
     2     1     6 1   
     3     1    24 1   
     4     2     3 ar  
     5     2    20 1   
     6     2    22 ar  
     7     3     4 ar  
     8     3    25 1   
     9     4     5 ar  
    10     4    26 1   
    11     5     7 ar  
    12     6    23 2   
    13     6    27 1   
    14     7    22 ar  
    15     7    23 1   
    16     8    10 ar  
    17     8    11 ar  
    18     8    35 1   
    19     9    10 ar  
    20     9    12 ar  
    21     9    37 1   
    22    10    36 1   
    23    11    13 ar  
    24    11    28 1   
    25    12    13 ar  
    26    12    29 1   
    27    13    14 1   
    28    14    15 1   
    29    14    19 1   
    30    14    30 1   
    31    15    16 1   
    32    15    31 1   
    33    15    32 1   
    34    16    17 1   
    35    16    18 1   
    36    19    20 1   
    37    19    33 1   
    38    20    21 2   
    39    23    34 1   
@<TRIPOS>SUBSTRUCTURE
     1 A1A         1 TEMP              0 ****  ****    0 ROOT
