@<TRIPOS>MOLECULE
A1A
   29    30     1     0     0
SMALL
abcg2


@<TRIPOS>ATOM
      1 N1          -8.0870     4.0770   -13.6630 ns         1 A1A      -0.367100
      2 C4          -8.2310     4.3640   -16.0290 ca         1 A1A      -0.100600
      3 C5          -9.3650     3.5970   -16.2740 ca         1 A1A      -0.101000
      4 C6          -9.6140     3.0790   -17.5370 ca         1 A1A      -0.086000
      5 C7          -8.7210     3.3180   -18.5660 ca         1 A1A      -0.101000
      6 C8          -7.5790     4.0720   -18.3320 ca         1 A1A      -0.068000
      7 F2          -6.3070     6.7220   -16.8940 f          1 A1A      -0.107000
      8 F           -5.1570     5.1540   -17.7920 f          1 A1A      -0.107000
      9 F1          -5.5080     5.1310   -15.6760 f          1 A1A      -0.107000
     10 C9          -7.3300     4.6010   -17.0720 ca         1 A1A      -0.152300
     11 C3          -8.0790     4.9750   -14.6660 c          1 A1A       0.612700
     12 O           -7.9980     6.1790   -14.5060 o          1 A1A      -0.559100
     13 C2          -8.0530     4.3810   -12.3020 cc         1 A1A      -0.060400
     14 C1          -8.2240     3.4620   -11.2870 cd         1 A1A      -0.227000
     15 C11         -7.8520     5.6060   -11.6400 cc         1 A1A       0.251900
     16 N2          -7.8980     5.4360   -10.3290 nd         1 A1A      -0.515800
     17 N           -8.1210     4.1470   -10.1340 na         1 A1A       0.140800
     18 C           -8.2110     3.6160    -8.7960 c3         1 A1A       0.076900
     19 H4          -8.1220     3.0980   -13.9030 hn         1 A1A       0.323500
     20 H5         -10.0720     3.4130   -15.4750 ha         1 A1A       0.125000
     21 H6         -10.5050     2.4900   -17.7110 ha         1 A1A       0.123000
     22 H7          -8.9020     2.9170   -19.5540 ha         1 A1A       0.125000
     23 H8          -6.8850     4.2340   -19.1440 ha         1 A1A       0.136000
     24 H3          -8.4060     2.4000   -11.3150 h4         1 A1A       0.152000
     25 H9          -7.6810     6.5840   -12.0550 h4         1 A1A       0.065100
     26 H1          -7.2510     3.6890    -8.2890 h1         1 A1A       0.056367
     27 H2          -8.9590     4.1640    -8.2260 h1         1 A1A       0.056367
     28 H           -8.5040     2.5720    -8.8490 h1         1 A1A       0.056367
     29 C10         -6.0790     5.4050   -16.8560 c3         1 A1A       0.359300
@<TRIPOS>BOND
     1     1    11 1   
     2     1    13 1   
     3     1    19 1   
     4     2     3 ar  
     5     2    10 ar  
     6     2    11 1   
     7     3     4 ar  
     8     3    20 1   
     9     4     5 ar  
    10     4    21 1   
    11     5     6 ar  
    12     5    22 1   
    13     6    10 ar  
    14     6    23 1   
    15     7    29 1   
    16     8    29 1   
    17     9    29 1   
    18    10    29 1   
    19    11    12 2   
    20    13    14 2   
    21    13    15 1   
    22    14    17 1   
    23    14    24 1   
    24    15    16 2   
    25    15    25 1   
    26    16    17 1   
    27    17    18 1   
    28    18    26 1   
    29    18    27 1   
    30    18    28 1   
@<TRIPOS>SUBSTRUCTURE
     1 A1A         1 TEMP              0 ****  ****    0 ROOT
