@<TRIPOS>MOLECULE
A1A
   67    71     1     0     0
SMALL
No Charge or Current Charge


@<TRIPOS>ATOM
      1 N1           4.1700   -14.9100    16.2060 nb         1 A1A      -0.308000
      2 N3          10.1350   -18.2070    17.2430 ns         1 A1A      -0.496900
      3 C4           2.3160   -14.8140    18.8830 ca         1 A1A      -0.108300
      4 C5           2.9320   -14.8150    20.1500 ca         1 A1A      -0.005000
      5 C6           3.0080   -13.6330    20.9160 ca         1 A1A      -0.246500
      6 C7           3.3960   -12.1560    23.3180 c6         1 A1A      -0.306400
      7 C8           3.5240   -10.9840    22.3220 c6         1 A1A      -0.054400
      8 C10          2.4670   -12.4240    20.4110 ca         1 A1A       0.013700
      9 C13          4.5430   -15.9540    16.9690 ca         1 A1A       0.447900
     10 C15          6.7930   -15.7580    16.1620 ca         1 A1A       0.160500
     11 C17          6.5310   -17.4600    17.6500 cc         1 A1A      -0.123200
     12 C20         11.2210   -19.1290    17.6210 c5         1 A1A       0.111700
     13 C21         12.5260   -18.2950    17.4380 c5         1 A1A       0.140800
     14 C24         11.2820   -20.1740    16.4540 c5         1 A1A      -0.108400
     15 C23         12.5880   -19.8080    15.6890 c5         1 A1A       0.155800
     16 N4          12.7280   -18.3630    15.9700 n3         1 A1A      -0.736600
     17 C18          7.8610   -17.4370    17.2510 cd         1 A1A      -0.164300
     18 N5           8.0260   -16.3700    16.3180 na         1 A1A      -0.307400
     19 N2           6.4420   -14.7100    15.3940 nb         1 A1A      -0.235000
     20 C14          5.1410   -14.3380    15.4560 ca         1 A1A       0.188900
     21 C16          5.8710   -16.3950    16.9520 ca         1 A1A      -0.275800
     22 N            3.5860   -16.5740    17.7570 nu         1 A1A      -0.920100
     23 C3           2.2270   -16.0960    18.0510 c3         1 A1A       0.290800
     24 C1           1.3920   -17.2180    18.7440 c3         1 A1A      -0.072700
     25 C2           1.2250   -18.4700    17.8440 c3         1 A1A      -0.088600
     26 C            0.0010   -16.7110    19.2040 c3         1 A1A      -0.088600
     27 C12          1.7800   -13.6130    18.3850 ca         1 A1A      -0.028000
     28 C11          1.8530   -12.4350    19.1440 ca         1 A1A      -0.132000
     29 S            3.8250   -13.7160    22.5190 sy         1 A1A       1.050500
     30 O            3.2160   -14.8100    23.2880 o          1 A1A      -0.522000
     31 O1           5.2740   -13.7050    22.2770 o          1 A1A      -0.522000
     32 C9           2.4760   -11.0970    21.1910 c6         1 A1A      -0.049100
     33 H22         10.2560   -17.4730    16.5610 hn         1 A1A       0.324500
     34 H10          3.3570   -15.7380    20.5380 ha         1 A1A       0.127000
     35 H12          2.3650   -12.2680    23.6760 h1         1 A1A       0.106700
     36 H11          4.0770   -12.0530    24.1710 h1         1 A1A       0.106700
     37 H13          3.3830   -10.0320    22.8530 hc         1 A1A       0.065700
     38 H14          4.5370   -10.9510    21.8960 hc         1 A1A       0.065700
     39 H21          6.1000   -18.1660    18.3600 ha         1 A1A       0.218000
     40 H1          11.1240   -19.5660    18.6250 h1         1 A1A       0.089700
     41 H24         12.4240   -17.2640    17.8070 h1         1 A1A       0.048700
     42 H23         13.3630   -18.7620    17.9770 h1         1 A1A       0.048700
     43 H25         14.0380   -17.8350    14.3790 h1         1 A1A       0.032700
     44 H26         13.9920   -16.6690    15.7210 h1         1 A1A       0.032700
     45 H27         14.8540   -18.2150    15.9150 h1         1 A1A       0.032700
     46 H31         10.4100   -20.1290    15.7910 hc         1 A1A       0.060200
     47 H30         11.3300   -21.2000    16.8350 hc         1 A1A       0.060200
     48 H29         12.5090   -20.0220    14.6140 h1         1 A1A       0.039700
     49 H28         13.4440   -20.3730    16.0850 h1         1 A1A       0.039700
     50 H2           8.8780   -16.0910    15.8430 hn         1 A1A       0.363000
     51 H20          4.8460   -13.4920    14.8380 h5         1 A1A       0.042100
     52 H19          3.9170   -17.3790    18.2810 hn         1 A1A       0.502000
     53 H            1.7200   -15.8590    17.1030 h1         1 A1A       0.082700
     54 H6           1.9290   -17.5350    19.6470 hc         1 A1A       0.052700
     55 H7           2.1950   -18.9110    17.5880 hc         1 A1A       0.039367
     56 H9           0.6370   -19.2410    18.3570 hc         1 A1A       0.039367
     57 H8           0.7090   -18.2130    16.9100 hc         1 A1A       0.039367
     58 H3           0.0940   -15.9060    19.9430 hc         1 A1A       0.039367
     59 H4          -0.5770   -16.3300    18.3530 hc         1 A1A       0.039367
     60 H5          -0.5730   -17.5200    19.6710 hc         1 A1A       0.039367
     61 H18          1.3010   -13.5910    17.4080 ha         1 A1A       0.125000
     62 H17          1.4230   -11.5200    18.7420 ha         1 A1A       0.116000
     63 H15          1.4760   -10.9390    21.6160 hc         1 A1A       0.063700
     64 H16          2.6320   -10.2660    20.4900 hc         1 A1A       0.063700
     65 C19          8.8760   -18.4070    17.7670 c          1 A1A       0.635300
     66 C22         13.9690   -17.7380    15.4710 c3         1 A1A       0.158100
     67 O2           8.6170   -19.2900    18.5750 o          1 A1A      -0.596100
@<TRIPOS>BOND
     1     1     9 ar  
     2     1    20 ar  
     3     2    12 1   
     4     2    33 1   
     5     2    65 1   
     6     3     4 ar  
     7     3    23 1   
     8     3    27 ar  
     9     4     5 ar  
    10     4    34 1   
    11     5     8 ar  
    12     5    29 1   
    13     6     7 1   
    14     6    29 1   
    15     6    35 1   
    16     6    36 1   
    17     7    32 1   
    18     7    37 1   
    19     7    38 1   
    20     8    28 ar  
    21     8    32 1   
    22     9    21 ar  
    23     9    22 1   
    24    10    18 1   
    25    10    19 ar  
    26    10    21 ar  
    27    11    17 2   
    28    11    21 1   
    29    11    39 1   
    30    12    13 1   
    31    12    14 1   
    32    12    40 1   
    33    13    16 1   
    34    13    41 1   
    35    13    42 1   
    36    14    15 1   
    37    14    46 1   
    38    14    47 1   
    39    15    16 1   
    40    15    48 1   
    41    15    49 1   
    42    16    66 1   
    43    17    18 1   
    44    17    65 1   
    45    18    50 1   
    46    19    20 ar  
    47    20    51 1   
    48    22    23 1   
    49    22    52 1   
    50    23    24 1   
    51    23    53 1   
    52    24    25 1   
    53    24    26 1   
    54    24    54 1   
    55    25    55 1   
    56    25    56 1   
    57    25    57 1   
    58    26    58 1   
    59    26    59 1   
    60    26    60 1   
    61    27    28 ar  
    62    27    61 1   
    63    28    62 1   
    64    29    30 2   
    65    29    31 2   
    66    32    63 1   
    67    32    64 1   
    68    43    66 1   
    69    44    66 1   
    70    45    66 1   
    71    65    67 2   
@<TRIPOS>SUBSTRUCTURE
     1 A1A         1 TEMP              0 ****  ****    0 ROOT
