@<TRIPOS>MOLECULE
A1A
   48    51     1     0     0
SMALL
abcg2


@<TRIPOS>ATOM
      1 N1          -0.1000    14.4040    -0.8540 nb         1 A1A      -0.301000
      2 N3          -3.3720    14.7680     1.4230 na         1 A1A      -0.316400
      3 C4          -1.2810    13.9700    -1.2940 ca         1 A1A       0.434900
      4 C5          -0.0320    14.9520     0.3600 ca         1 A1A       0.176900
      5 C6          -2.1870    14.7100     0.7700 ca         1 A1A       0.145500
      6 C7          -4.3530    14.2250     0.6320 cc         1 A1A      -0.176100
      7 C8          -3.8110    13.8080    -0.5480 cd         1 A1A      -0.205200
      8 C10         -0.0250    14.6960    -4.0790 ca         1 A1A      -0.111300
      9 C13          0.3920    17.2330    -5.2680 ca         1 A1A       0.011700
     10 C15         -1.0460    15.3280    -4.7710 ca         1 A1A      -0.007000
     11 C17         -0.5680    19.4080    -6.1820 c6         1 A1A      -0.055400
     12 S           -2.2360    17.2770    -6.1880 sy         1 A1A       1.048500
     13 O           -2.7630    16.2910    -7.1300 o          1 A1A      -0.523000
     14 C16         -1.5320    18.6510    -7.0790 c6         1 A1A      -0.305400
     15 C18          0.6710    18.5760    -5.8900 c6         1 A1A      -0.049100
     16 C12          1.4080    16.5760    -4.5750 ca         1 A1A      -0.131000
     17 C11          1.2060    15.3380    -3.9920 ca         1 A1A      -0.029000
     18 C14         -0.8320    16.5700    -5.3590 ca         1 A1A      -0.244500
     19 C3          -0.2490    13.3420    -3.4390 c3         1 A1A       0.288800
     20 C1          -0.4900    12.2310    -4.4740 c3         1 A1A      -0.069700
     21 C2          -0.6410    10.8730    -3.7950 c3         1 A1A      -0.087600
     22 C            0.6440    12.1870    -5.4930 c3         1 A1A      -0.087600
     23 N           -1.3530    13.3870    -2.5040 nu         1 A1A      -0.921100
     24 C9          -2.4180    14.1120    -0.4730 ca         1 A1A      -0.256800
     25 N2          -1.0060    15.1430     1.2240 nb         1 A1A      -0.228000
     26 H1          -3.5110    15.1540     2.3440 hn         1 A1A       0.361000
     27 H10          0.9560    15.2820     0.6660 h5         1 A1A       0.041100
     28 H11         -5.3720    14.1800     0.9790 h4         1 A1A       0.217000
     29 H12         -4.3460    13.3430    -1.3610 ha         1 A1A       0.203000
     30 H15         -2.0150    14.8480    -4.8550 ha         1 A1A       0.125000
     31 H18         -0.2760    20.3280    -6.6890 hc         1 A1A       0.065200
     32 H19         -1.0650    19.7060    -5.2560 hc         1 A1A       0.065200
     33 H17         -1.0310    18.2500    -7.9620 h1         1 A1A       0.106200
     34 H16         -2.3810    19.2570    -7.3990 h1         1 A1A       0.106200
     35 H21          1.2200    18.4190    -6.8240 hc         1 A1A       0.063700
     36 H20          1.3420    19.1330    -5.2350 hc         1 A1A       0.063700
     37 H14          2.3740    17.0580    -4.4840 ha         1 A1A       0.116000
     38 H13          2.0170    14.8630    -3.4530 ha         1 A1A       0.125000
     39 H            0.6530    13.0800    -2.8780 h1         1 A1A       0.085700
     40 H5          -1.4210    12.4600    -5.0070 hc         1 A1A       0.049700
     41 H7          -1.4820    10.8400    -3.1030 hc         1 A1A       0.038700
     42 H6          -0.8000    10.0940    -4.5410 hc         1 A1A       0.038700
     43 H8           0.2630    10.6160    -3.2380 hc         1 A1A       0.038700
     44 H3           0.7210    13.1090    -6.0690 hc         1 A1A       0.038700
     45 H4           1.6040    12.0180    -5.0000 hc         1 A1A       0.038700
     46 H2           0.4860    11.3710    -6.1980 hc         1 A1A       0.038700
     47 H9          -2.2700    13.1550    -2.8530 hn         1 A1A       0.495000
     48 O1          -3.1500    17.7960    -5.1710 o          1 A1A      -0.523000
@<TRIPOS>BOND
     1     1     3 ar  
     2     1     4 ar  
     3     2     5 1   
     4     2     6 1   
     5     2    26 1   
     6     3    23 1   
     7     3    24 ar  
     8     4    25 ar  
     9     4    27 1   
    10     5    24 ar  
    11     5    25 ar  
    12     6     7 2   
    13     6    28 1   
    14     7    24 1   
    15     7    29 1   
    16     8    10 ar  
    17     8    17 ar  
    18     8    19 1   
    19     9    15 1   
    20     9    16 ar  
    21     9    18 ar  
    22    10    18 ar  
    23    10    30 1   
    24    11    14 1   
    25    11    15 1   
    26    11    31 1   
    27    11    32 1   
    28    12    13 2   
    29    12    14 1   
    30    12    18 1   
    31    12    48 2   
    32    14    33 1   
    33    14    34 1   
    34    15    35 1   
    35    15    36 1   
    36    16    17 ar  
    37    16    37 1   
    38    17    38 1   
    39    19    20 1   
    40    19    23 1   
    41    19    39 1   
    42    20    21 1   
    43    20    22 1   
    44    20    40 1   
    45    21    41 1   
    46    21    42 1   
    47    21    43 1   
    48    22    44 1   
    49    22    45 1   
    50    22    46 1   
    51    23    47 1   
@<TRIPOS>SUBSTRUCTURE
     1 A1A         1 TEMP              0 ****  ****    0 ROOT
