@<TRIPOS>MOLECULE
A1A
   36    38     1     0     0
SMALL
abcg2


@<TRIPOS>ATOM
      1 N1          -0.9810    13.7560    -2.4760 nh         1 A1A      -0.777300
      2 N3          -0.8340    15.5960     1.2510 nb         1 A1A      -0.231000
      3 C4          -0.0510    11.6930    -3.3900 c          1 A1A       0.560000
      4 C5          -1.9880    12.7000    -4.4540 c6         1 A1A       0.096000
      5 C6          -2.2060    13.5820    -3.2360 c6         1 A1A       0.211800
      6 C7          -1.0070    14.3770    -1.2710 ca         1 A1A       0.442900
      7 C8           0.1490    14.9750     0.6340 ca         1 A1A       0.183900
      8 C10         -4.0630    15.9910    -0.0610 cc         1 A1A      -0.180100
      9 O            0.6830    10.7610    -3.0990 o          1 A1A      -0.548000
     10 N           -1.1750    11.5590    -4.1090 ns         1 A1A      -0.510900
     11 C3           0.2450    13.1250    -2.9580 c6         1 A1A       0.152500
     12 C1           0.9630    13.9360    -4.0620 c3         1 A1A      -0.060700
     13 C2           2.2730    13.2610    -4.4610 c3         1 A1A      -0.089100
     14 C            1.2230    15.3650    -3.6010 c3         1 A1A      -0.089100
     15 C12         -2.1550    15.0150    -0.7330 ca         1 A1A      -0.248800
     16 C11         -3.5180    15.2890    -1.0920 cd         1 A1A      -0.209200
     17 N4          -3.1220    16.1710     0.9180 na         1 A1A      -0.315400
     18 C9          -1.9610    15.5960     0.5360 ca         1 A1A       0.144500
     19 N2           0.1210    14.3880    -0.5550 nb         1 A1A      -0.303000
     20 H10         -1.5500    13.2680    -5.2770 h1         1 A1A       0.052700
     21 H11         -2.9580    12.3480    -4.7990 h1         1 A1A       0.052700
     22 H12         -2.6000    14.5420    -3.5760 h1         1 A1A       0.055200
     23 H13         -2.9620    13.1120    -2.6020 h1         1 A1A       0.055200
     24 H14          1.1010    14.9370     1.1540 h5         1 A1A       0.046100
     25 H15         -5.0610    16.3800     0.0550 h4         1 A1A       0.217000
     26 H9          -1.4340    10.6420    -4.4410 hn         1 A1A       0.324500
     27 H8           0.9260    13.0560    -2.1110 h1         1 A1A       0.126700
     28 H4           0.3300    13.9820    -4.9520 hc         1 A1A       0.039700
     29 H6           2.1220    12.2800    -4.9100 hc         1 A1A       0.040533
     30 H7           2.7990    13.8750    -5.1930 hc         1 A1A       0.040533
     31 H5           2.9320    13.1370    -3.5980 hc         1 A1A       0.040533
     32 H1           0.3010    15.8950    -3.3640 hc         1 A1A       0.040533
     33 H2           1.8610    15.3840    -2.7160 hc         1 A1A       0.040533
     34 H3           1.7280    15.9250    -4.3890 hc         1 A1A       0.040533
     35 H16         -4.0490    15.0160    -1.9860 ha         1 A1A       0.199000
     36 H           -3.2640    16.6620     1.7860 hn         1 A1A       0.363000
@<TRIPOS>BOND
     1     1     5 1   
     2     1     6 1   
     3     1    11 1   
     4     2     7 ar  
     5     2    18 ar  
     6     3     9 2   
     7     3    10 1   
     8     3    11 1   
     9     4     5 1   
    10     4    10 1   
    11     4    20 1   
    12     4    21 1   
    13     5    22 1   
    14     5    23 1   
    15     6    15 ar  
    16     6    19 ar  
    17     7    19 ar  
    18     7    24 1   
    19     8    16 2   
    20     8    17 1   
    21     8    25 1   
    22    10    26 1   
    23    11    12 1   
    24    11    27 1   
    25    12    13 1   
    26    12    14 1   
    27    12    28 1   
    28    13    29 1   
    29    13    30 1   
    30    13    31 1   
    31    14    32 1   
    32    14    33 1   
    33    14    34 1   
    34    15    16 1   
    35    15    18 ar  
    36    16    35 1   
    37    17    18 1   
    38    17    36 1   
@<TRIPOS>SUBSTRUCTURE
     1 A1A         1 TEMP              0 ****  ****    0 ROOT
