@<TRIPOS>MOLECULE
A1A
   36    38     1     0     0
SMALL
No Charge or Current Charge


@<TRIPOS>ATOM
      1 N1          -0.5010    15.1290     0.3330 nb         1 A1A      -0.199000
      2 N3          -4.0390    15.8390     2.3180 na         1 A1A      -0.330400
      3 C4          -1.6900    15.2590    -0.3170 ca         1 A1A       0.133500
      4 C5          -0.5110    15.2410     1.6840 ca         1 A1A       0.138900
      5 C6          -2.7610    15.6010     1.8320 ca         1 A1A       0.113500
      6 C7          -4.9850    15.9000     1.2730 cc         1 A1A      -0.188100
      7 C8          -4.2370    15.6900     0.1280 cd         1 A1A      -0.170200
      8 C10         -0.0770    16.0910    -4.5400 ca         1 A1A      -0.080300
      9 C13          0.2620    18.6000    -5.7790 ca         1 A1A       0.144000
     10 C15         -1.0050    16.5430    -5.5020 ca         1 A1A      -0.075500
     11 F            0.4240    19.8020    -6.3730 f          1 A1A      -0.200000
     12 C12          1.1880    18.1640    -4.8200 ca         1 A1A      -0.161000
     13 C11          1.0200    16.9130    -4.2010 ca         1 A1A      -0.075500
     14 C14         -0.8340    17.7940    -6.1210 ca         1 A1A      -0.161000
     15 C2          -0.2740    14.7310    -3.8700 c3         1 A1A       0.165000
     16 C1           0.8980    13.7660    -4.1560 c3         1 A1A      -0.226400
     17 C            0.5850    12.3760    -3.5930 c          1 A1A       0.718000
     18 O1           0.9640    12.1130    -2.4620 o          1 A1A      -0.726500
     19 O           -0.0550    11.6060    -4.2920 o          1 A1A      -0.726500
     20 N           -0.4890    14.8950    -2.4330 ns         1 A1A      -0.448900
     21 C3          -1.7120    15.1390    -1.8370 c          1 A1A       0.505600
     22 O2          -2.7300    15.2500    -2.5110 o          1 A1A      -0.619100
     23 C9          -2.8450    15.5010     0.4620 ca         1 A1A      -0.148800
     24 N2          -1.5870    15.4720     2.4740 nb         1 A1A      -0.206000
     25 H1          -4.2510    15.9520     3.3050 hn         1 A1A       0.354000
     26 H6           0.4480    15.1340     2.1880 h5         1 A1A       0.046100
     27 H7          -6.0490    16.0770     1.4220 h4         1 A1A       0.208000
     28 H8          -4.6540    15.6720    -0.8770 ha         1 A1A       0.232000
     29 H12         -1.8590    15.9250    -5.7710 ha         1 A1A       0.121000
     30 H10          2.0340    18.7950    -4.5570 ha         1 A1A       0.117000
     31 H9           1.7400    16.5860    -3.4550 ha         1 A1A       0.121000
     32 H11         -1.5500    18.1390    -6.8630 ha         1 A1A       0.117000
     33 H           -1.1790    14.2700    -4.2930 h1         1 A1A       0.099700
     34 H3           1.7880    14.1860    -3.6730 hc         1 A1A       0.031200
     35 H4           0.9700    13.7190    -5.2500 hc         1 A1A       0.031200
     36 H5           0.3040    14.7860    -1.8120 hn         1 A1A       0.346500
@<TRIPOS>BOND
     1     1     3 ar  
     2     1     4 ar  
     3     2     5 1   
     4     2     6 1   
     5     2    25 1   
     6     3    21 1   
     7     3    23 ar  
     8     4    24 ar  
     9     4    26 1   
    10     5    23 ar  
    11     5    24 ar  
    12     6     7 2   
    13     6    27 1   
    14     7    23 1   
    15     7    28 1   
    16     8    10 ar  
    17     8    13 ar  
    18     8    15 1   
    19     9    11 1   
    20     9    12 ar  
    21     9    14 ar  
    22    10    14 ar  
    23    10    29 1   
    24    12    13 ar  
    25    12    30 1   
    26    13    31 1   
    27    14    32 1   
    28    15    16 1   
    29    15    20 1   
    30    15    33 1   
    31    16    17 1   
    32    16    34 1   
    33    16    35 1   
    34    17    18 1   
    35    17    19 1   
    36    20    21 1   
    37    20    36 1   
    38    21    22 2   
@<TRIPOS>SUBSTRUCTURE
     1 A1A         1 TEMP              0 ****  ****    0 ROOT
