@<TRIPOS>MOLECULE
A1A
   39    41     1     0     0
SMALL
No Charge or Current Charge


@<TRIPOS>ATOM
      1 N1          -7.1730    15.7290    -1.1400 nc         1 A1A      -0.538100
      2 N3          -4.9490    15.3470     1.7150 nb         1 A1A      -0.690000
      3 C4          -2.8290    15.0960    -2.1180 c          1 A1A       0.599700
      4 C5          -0.5900    14.7940    -3.2360 c3         1 A1A       0.165000
      5 C6           0.8590    15.1700    -2.8540 c3         1 A1A      -0.222400
      6 C7           1.3540    14.3400    -1.6640 c          1 A1A       0.720000
      7 C8          -0.6910    13.4310    -3.9270 ca         1 A1A      -0.048300
      8 C10         -0.7540    12.1210    -5.9910 ca         1 A1A      -0.092000
      9 C13         -0.8210    12.2370    -3.1840 ca         1 A1A      -0.089500
     10 C15         -3.6090    15.1470     1.6710 ca         1 A1A       0.366900
     11 C11         -0.8840    10.9410    -5.2420 ca         1 A1A      -0.022900
     12 C9          -0.6570    13.3610    -5.3350 ca         1 A1A      -0.089500
     13 C12         -0.9170    10.9970    -3.8390 ca         1 A1A      -0.092000
     14 O2           0.9990    14.6840    -0.5470 o          1 A1A      -0.724500
     15 O1           2.0220    13.3440    -1.8890 o          1 A1A      -0.724500
     16 N2          -1.4690    14.8980    -2.0730 ns         1 A1A      -0.488900
     17 O           -3.4160    15.1950    -3.1880 o          1 A1A      -0.640100
     18 C3          -3.5460    15.1810    -0.7760 ca         1 A1A      -0.017600
     19 C14         -2.8770    15.0580     0.4690 ca         1 A1A      -0.172000
     20 C16         -5.5860    15.4630     0.5320 ca         1 A1A       0.353500
     21 N           -6.9270    15.6690     0.2330 na         1 A1A      -0.038100
     22 C           -7.9770    15.8080     1.2540 c3         1 A1A       0.093900
     23 C2          -4.9390    15.3870    -0.6710 ca         1 A1A      -0.229900
     24 C1          -5.9610    15.5570    -1.6860 cd         1 A1A       0.391800
     25 H           -0.9280    15.5500    -3.9590 h1         1 A1A       0.045700
     26 H7           1.4830    15.0040    -3.7390 hc         1 A1A       0.039200
     27 H6           0.7990    16.2240    -2.5580 hc         1 A1A       0.039200
     28 H10         -0.7270    12.0780    -7.0770 ha         1 A1A       0.115500
     29 H12         -0.8440    12.2650    -2.0970 ha         1 A1A       0.124000
     30 H14         -3.1040    15.0540     2.6320 h4         1 A1A       0.017100
     31 H9          -0.5570    14.2710    -5.9230 ha         1 A1A       0.124000
     32 H11         -1.0160    10.0820    -3.2590 ha         1 A1A       0.115500
     33 H5          -1.0320    14.8560    -1.1590 hn         1 A1A       0.390500
     34 H13         -1.8060    14.8960     0.5370 ha         1 A1A       0.151000
     35 H2          -8.9510    15.9620     0.7720 h1         1 A1A       0.049033
     36 H3          -8.0170    14.8980     1.8650 h1         1 A1A       0.049033
     37 H1          -7.7520    16.6680     1.8960 h1         1 A1A       0.049033
     38 H4          -5.8780    15.5630    -2.7660 h4         1 A1A       0.069800
     39 Br          -1.0150     9.2550    -6.1330 br         1 A1A      -0.147100
@<TRIPOS>BOND
     1     1    21 1   
     2     1    24 2   
     3     2    10 ar  
     4     2    20 ar  
     5     3    16 1   
     6     3    17 2   
     7     3    18 1   
     8     4     5 1   
     9     4     7 1   
    10     4    16 1   
    11     4    25 1   
    12     5     6 1   
    13     5    26 1   
    14     5    27 1   
    15     6    14 1   
    16     6    15 1   
    17     7     9 ar  
    18     7    12 ar  
    19     8    11 ar  
    20     8    12 ar  
    21     8    28 1   
    22     9    13 ar  
    23     9    29 1   
    24    10    19 ar  
    25    10    30 1   
    26    11    13 ar  
    27    11    39 1   
    28    12    31 1   
    29    13    32 1   
    30    16    33 1   
    31    18    19 ar  
    32    18    23 ar  
    33    19    34 1   
    34    20    21 1   
    35    20    23 ar  
    36    21    22 1   
    37    22    35 1   
    38    22    36 1   
    39    22    37 1   
    40    23    24 1   
    41    24    38 1   
@<TRIPOS>SUBSTRUCTURE
     1 A1A         1 TEMP              0 ****  ****    0 ROOT
