@<TRIPOS>MOLECULE
A1A
   65    69     1     0     0
SMALL
No Charge or Current Charge


@<TRIPOS>ATOM
      1 N1           3.5070   -16.3150    17.6770 nu         1 A1A      -0.924100
      2 N3           6.4940   -14.1830    15.7230 nb         1 A1A      -0.230000
      3 C4           9.5980   -19.7470    19.4930 ca         1 A1A      -0.116000
      4 C5           8.6150   -18.8490    19.0510 ca         1 A1A      -0.075000
      5 C6           8.8870   -17.9570    17.9930 ca         1 A1A      -0.037800
      6 C7           7.8730   -17.0070    17.5180 cc         1 A1A      -0.026300
      7 C8           6.5150   -17.0900    17.7710 cd         1 A1A      -0.183200
      8 C10          4.5040   -15.6060    17.0260 ca         1 A1A       0.440900
      9 C13          1.5620   -13.4590    18.3800 ca         1 A1A      -0.031000
     10 C15          2.0570   -12.4100    20.5360 ca         1 A1A       0.012700
     11 C17          2.6180   -14.7610    20.1350 ca         1 A1A      -0.005000
     12 C20          1.9640   -11.1480    21.4120 c6         1 A1A      -0.049100
     13 C21          1.2660   -17.0890    18.4370 c3         1 A1A      -0.072700
     14 C22         -0.1720   -16.6550    18.8220 c3         1 A1A      -0.088600
     15 C24          5.1770   -13.8600    15.6930 ca         1 A1A       0.181900
     16 C26         10.1640   -17.9820    17.3910 ca         1 A1A      -0.087000
     17 S            3.2950   -13.8230    22.6400 sy         1 A1A       1.047500
     18 O1           2.6680   -14.9890    23.2770 o          1 A1A      -0.522000
     19 C18          2.7570   -12.3420    23.5180 c6         1 A1A      -0.304400
     20 C19          2.9210   -11.0940    22.6260 c6         1 A1A      -0.056400
     21 C14          1.5390   -12.3400    19.2290 ca         1 A1A      -0.131000
     22 C16          2.5980   -13.6400    20.9900 ca         1 A1A      -0.244500
     23 C12          2.0990   -14.6800    18.8270 ca         1 A1A      -0.106300
     24 C11          2.1150   -15.8960    17.8970 c3         1 A1A       0.291800
     25 C23          1.2100   -18.2730    17.4370 c3         1 A1A      -0.088600
     26 N2           4.1640   -14.5180    16.3070 nb         1 A1A      -0.301000
     27 C25          6.8110   -15.2730    16.4440 ca         1 A1A       0.154500
     28 C9           5.8450   -15.9980    17.1010 ca         1 A1A      -0.260800
     29 N4           8.0330   -15.8820    16.6870 na         1 A1A      -0.310400
     30 C3          10.8630   -19.7680    18.8870 ca         1 A1A      -0.054000
     31 C2          11.1660   -18.8860    17.8270 ca         1 A1A      -0.145600
     32 C1          12.5440   -18.9360    17.1950 c          1 A1A       0.608700
     33 O           13.4090   -19.7130    17.5780 o          1 A1A      -0.596100
     34 N           12.7880   -18.0610    16.1590 ns         1 A1A      -0.505900
     35 C           14.0570   -17.9700    15.4340 c3         1 A1A       0.093300
     36 H10          3.8270   -17.1400    18.1750 hn         1 A1A       0.499000
     37 H8           7.6490   -18.8460    19.5480 ha         1 A1A       0.122000
     38 H9           6.0290   -17.8660    18.3550 ha         1 A1A       0.202000
     39 H11          1.1570   -13.3750    17.3740 ha         1 A1A       0.123000
     40 H13          3.0440   -15.6990    20.4840 ha         1 A1A       0.127000
     41 H18          0.9300   -11.0500    21.7690 hc         1 A1A       0.064200
     42 H19          2.1440   -10.2610    20.7890 hc         1 A1A       0.064200
     43 H20          1.7420   -17.4600    19.3540 hc         1 A1A       0.050700
     44 H21         -0.7540   -17.5130    19.1810 hc         1 A1A       0.039033
     45 H22         -0.1620   -15.9070    19.6230 hc         1 A1A       0.039033
     46 H23         -0.6940   -16.2260    17.9580 hc         1 A1A       0.039033
     47 H27          4.9060   -12.9800    15.1120 h5         1 A1A       0.043100
     48 H28         10.3640   -17.2940    16.5760 ha         1 A1A       0.109000
     49 H15          1.7060   -12.5090    23.7860 h1         1 A1A       0.106700
     50 H14          3.3690   -12.2860    24.4260 h1         1 A1A       0.106700
     51 H16          2.7090   -10.1890    23.2130 hc         1 A1A       0.066700
     52 H17          3.9610   -11.0000    22.2820 hc         1 A1A       0.066700
     53 H12          1.1110   -11.4090    18.8650 ha         1 A1A       0.116000
     54 H            1.6750   -15.5990    16.9330 h1         1 A1A       0.082700
     55 H24          0.6090   -19.0960    17.8430 hc         1 A1A       0.039033
     56 H26          0.7600   -17.9590    16.4870 hc         1 A1A       0.039033
     57 H25          2.2110   -18.6680    17.2280 hc         1 A1A       0.039033
     58 H1           8.9140   -15.5480    16.3180 hn         1 A1A       0.363000
     59 H6          11.6080   -20.4740    19.2470 ha         1 A1A       0.138000
     60 H5          12.0310   -17.4460    15.8880 hn         1 A1A       0.317500
     61 H4          13.9830   -17.1950    14.6600 h1         1 A1A       0.041367
     62 H2          14.8640   -17.7090    16.1310 h1         1 A1A       0.041367
     63 H3          14.2820   -18.9340    14.9590 h1         1 A1A       0.041367
     64 O2           4.7570   -13.7550    22.5120 o          1 A1A      -0.522000
     65 H7           9.3790   -20.4300    20.3120 ha         1 A1A       0.122000
@<TRIPOS>BOND
     1     1     8 1   
     2     1    24 1   
     3     1    36 1   
     4     2    15 ar  
     5     2    27 ar  
     6     3     4 ar  
     7     3    30 ar  
     8     3    65 1   
     9     4     5 ar  
    10     4    37 1   
    11     5     6 1   
    12     5    16 ar  
    13     6     7 2   
    14     6    29 1   
    15     7    28 1   
    16     7    38 1   
    17     8    26 ar  
    18     8    28 ar  
    19     9    21 ar  
    20     9    23 ar  
    21     9    39 1   
    22    10    12 1   
    23    10    21 ar  
    24    10    22 ar  
    25    11    22 ar  
    26    11    23 ar  
    27    11    40 1   
    28    12    20 1   
    29    12    41 1   
    30    12    42 1   
    31    13    14 1   
    32    13    24 1   
    33    13    25 1   
    34    13    43 1   
    35    14    44 1   
    36    14    45 1   
    37    14    46 1   
    38    15    26 ar  
    39    15    47 1   
    40    16    31 ar  
    41    16    48 1   
    42    17    18 2   
    43    17    19 1   
    44    17    22 1   
    45    17    64 2   
    46    19    20 1   
    47    19    49 1   
    48    19    50 1   
    49    20    51 1   
    50    20    52 1   
    51    21    53 1   
    52    23    24 1   
    53    24    54 1   
    54    25    55 1   
    55    25    56 1   
    56    25    57 1   
    57    27    28 ar  
    58    27    29 1   
    59    29    58 1   
    60    30    31 ar  
    61    30    59 1   
    62    31    32 1   
    63    32    33 2   
    64    32    34 1   
    65    34    35 1   
    66    34    60 1   
    67    35    61 1   
    68    35    62 1   
    69    35    63 1   
@<TRIPOS>SUBSTRUCTURE
     1 A1A         1 TEMP              0 ****  ****    0 ROOT
