@<TRIPOS>MOLECULE
A1A
   38    41     1     0     0
SMALL
No Charge or Current Charge


@<TRIPOS>ATOM
      1 N1          -1.0080     9.7270    -6.3130 nb         1 A1A      -0.189000
      2 N3           0.0650     9.1080   -10.2480 na         1 A1A      -0.332400
      3 C4          -1.6220    14.2850    -4.1390 ca         1 A1A      -0.073000
      4 C5          -2.2810    15.5050    -4.3940 ca         1 A1A      -0.145000
      5 C6          -1.5100    16.6270    -4.7170 ca         1 A1A       0.093100
      6 C7          -0.1390    16.5630    -4.7750 ca         1 A1A      -0.179300
      7 C8           0.5410    15.3610    -4.5220 ca         1 A1A      -0.030000
      8 C10         -0.8900    18.6380    -5.5020 c5         1 A1A       0.151600
      9 C13         -0.4000     9.1760    -8.9430 ca         1 A1A       0.110500
     10 C15          1.0690    10.8830    -9.2410 cc         1 A1A      -0.171200
     11 C2           0.3150    12.4310    -2.4450 c          1 A1A       0.725000
     12 O2          -0.5960    11.6540    -2.1840 o          1 A1A      -0.707000
     13 C1           0.5080    12.8850    -3.9250 c3         1 A1A      -0.013000
     14 N            0.0770    11.8250    -4.8660 ns         1 A1A      -0.433900
     15 C11         -0.1170    10.5320    -6.9520 ca         1 A1A       0.129500
     16 C16          0.1910    10.2420    -8.3040 ca         1 A1A      -0.152800
     17 C14          0.9790    10.1740   -10.4280 cd         1 A1A      -0.191100
     18 N2          -1.2800     8.3820    -8.3070 nb         1 A1A      -0.210000
     19 C12         -1.5400     8.7010    -7.0180 ca         1 A1A       0.134900
     20 O            1.3090    12.4790    -6.6580 o          1 A1A      -0.638100
     21 C3          -0.2080    14.2060    -4.2020 ca         1 A1A      -0.056300
     22 C9           0.4420    17.9000    -5.1030 c5         1 A1A      -0.047100
     23 O3          -2.0230    17.8670    -4.9720 os         1 A1A      -0.350100
     24 H           -0.2080     8.4160   -10.9400 hn         1 A1A       0.353000
     25 H4          -2.2070    13.4020    -3.8920 ha         1 A1A       0.117000
     26 H5          -3.3650    15.5730    -4.3440 ha         1 A1A       0.109000
     27 H6           1.6270    15.3240    -4.5710 ha         1 A1A       0.119000
     28 H9          -0.9330    19.6680    -5.1250 h1         1 A1A       0.038200
     29 H10         -0.9910    18.6720    -6.5950 h1         1 A1A       0.038200
     30 H13          1.6960    11.7580    -9.0770 ha         1 A1A       0.232000
     31 H2           1.5870    13.0300    -4.0630 h1         1 A1A       0.060700
     32 H1          -0.5830    11.1310    -4.5270 hn         1 A1A       0.368500
     33 H12          1.4910    10.3470   -11.3730 h4         1 A1A       0.207000
     34 H11         -2.2510     8.0660    -6.4930 h5         1 A1A       0.047100
     35 H7           0.9240    18.3670    -4.2360 hc         1 A1A       0.051700
     36 H8           1.1650    17.8720    -5.9260 hc         1 A1A       0.051700
     37 C            0.4960    11.6960    -6.1780 c          1 A1A       0.487600
     38 O1           1.0970    12.8550    -1.6050 o          1 A1A      -0.707000
@<TRIPOS>BOND
     1     1    15 ar  
     2     1    19 ar  
     3     2     9 1   
     4     2    17 1   
     5     2    24 1   
     6     3     4 ar  
     7     3    21 ar  
     8     3    25 1   
     9     4     5 ar  
    10     4    26 1   
    11     5     6 ar  
    12     5    23 1   
    13     6     7 ar  
    14     6    22 1   
    15     7    21 ar  
    16     7    27 1   
    17     8    22 1   
    18     8    23 1   
    19     8    28 1   
    20     8    29 1   
    21     9    16 ar  
    22     9    18 ar  
    23    10    16 1   
    24    10    17 2   
    25    10    30 1   
    26    11    12 1   
    27    11    13 1   
    28    11    38 1   
    29    13    14 1   
    30    13    21 1   
    31    13    31 1   
    32    14    32 1   
    33    14    37 1   
    34    15    16 ar  
    35    15    37 1   
    36    17    33 1   
    37    18    19 ar  
    38    19    34 1   
    39    20    37 2   
    40    22    35 1   
    41    22    36 1   
@<TRIPOS>SUBSTRUCTURE
     1 A1A         1 TEMP              0 ****  ****    0 ROOT
