@<TRIPOS>MOLECULE
A1A
   35    37     1     0     0
SMALL
No Charge or Current Charge


@<TRIPOS>ATOM
      1 N1          -0.6310    14.3440    -0.2160 nb         1 A1A      -0.169000
      2 N3          -3.5850    16.6610     1.4750 na         1 A1A      -0.332400
      3 C4          -1.6850    14.8190    -0.9320 ca         1 A1A       0.125500
      4 C5          -0.5740    14.6610     1.1020 ca         1 A1A       0.136900
      5 C6          -2.5070    15.8780     1.0890 ca         1 A1A       0.110500
      6 C7          -4.4510    16.9170     0.3900 cc         1 A1A      -0.189100
      7 C8          -3.8600    16.2590    -0.6740 cd         1 A1A      -0.175200
      8 C10         -1.5440    12.0860    -4.6270 ca         1 A1A      -0.026300
      9 C13         -3.0320    10.9320    -6.1640 ca         1 A1A       0.319400
     10 C3          -1.7750    14.4770    -2.4150 c          1 A1A       0.492600
     11 C9          -2.6440    15.6050    -0.2520 ca         1 A1A      -0.153800
     12 N2          -1.4640    15.4090     1.7970 nb         1 A1A      -0.208000
     13 N           -0.7470    13.6990    -2.9100 ns         1 A1A      -0.457900
     14 C2          -0.6120    13.2540    -4.2950 c3         1 A1A       0.167000
     15 C1           0.8660    12.9550    -4.6320 c3         1 A1A      -0.222400
     16 C            1.4630    11.9410    -3.6510 c          1 A1A       0.717000
     17 O1           1.4760    10.7630    -3.9700 o          1 A1A      -0.726000
     18 O            1.8410    12.3570    -2.5660 o          1 A1A      -0.726000
     19 C14         -2.1780    12.0120    -5.8820 ca         1 A1A      -0.140000
     20 N4          -3.2840     9.9390    -5.2810 nb         1 A1A      -0.692000
     21 C12         -2.6750    10.0070    -4.0740 ca         1 A1A       0.319400
     22 C11         -1.8080    11.0500    -3.7080 ca         1 A1A      -0.140000
     23 H1          -3.7220    17.0010     2.4230 hn         1 A1A       0.353000
     24 H6           0.2760    14.2740     1.6590 h5         1 A1A       0.052100
     25 H7          -5.3610    17.5100     0.4620 h4         1 A1A       0.207000
     26 H8          -4.2670    16.2460    -1.6840 ha         1 A1A       0.230000
     27 H5          -0.0080    13.4430    -2.2590 hn         1 A1A       0.401500
     28 H           -0.9120    14.0980    -4.9310 h1         1 A1A       0.043700
     29 H3           1.3760    13.9190    -4.5160 hc         1 A1A       0.036700
     30 H4           0.8920    12.5720    -5.6590 hc         1 A1A       0.036700
     31 H12         -2.0150    12.7790    -6.6340 ha         1 A1A       0.127000
     32 H10         -2.8900     9.1970    -3.3780 h4         1 A1A       0.000100
     33 H9          -1.3500    11.0420    -2.7240 ha         1 A1A       0.127000
     34 O2          -2.6870    14.8520    -3.1440 o          1 A1A      -0.644100
     35 H11         -3.5310    10.8590    -7.1290 h4         1 A1A       0.000100
@<TRIPOS>BOND
     1     1     3 ar  
     2     1     4 ar  
     3     2     5 1   
     4     2     6 1   
     5     2    23 1   
     6     3    10 1   
     7     3    11 ar  
     8     4    12 ar  
     9     4    24 1   
    10     5    11 ar  
    11     5    12 ar  
    12     6     7 2   
    13     6    25 1   
    14     7    11 1   
    15     7    26 1   
    16     8    14 1   
    17     8    19 ar  
    18     8    22 ar  
    19     9    19 ar  
    20     9    20 ar  
    21     9    35 1   
    22    10    13 1   
    23    10    34 2   
    24    13    14 1   
    25    13    27 1   
    26    14    15 1   
    27    14    28 1   
    28    15    16 1   
    29    15    29 1   
    30    15    30 1   
    31    16    17 1   
    32    16    18 1   
    33    19    31 1   
    34    20    21 ar  
    35    21    22 ar  
    36    21    32 1   
    37    22    33 1   
@<TRIPOS>SUBSTRUCTURE
     1 A1A         1 TEMP              0 ****  ****    0 ROOT
