@<TRIPOS>MOLECULE
A1A
   44    46     1     0     0
SMALL
abcg2


@<TRIPOS>ATOM
      1 N1          -2.0820    13.8280    -3.1860 ns         1 A1A      -0.489900
      2 N3          -1.6690    14.5740     1.7920 nb         1 A1A      -0.208000
      3 C4          -2.1700    11.0660    -4.2100 ca         1 A1A      -0.106000
      4 C5          -1.5370    12.1140    -4.8660 ca         1 A1A      -0.023300
      5 C6          -1.9470    13.5480    -4.6020 c3         1 A1A       0.163000
      6 C7          -3.2830    13.8120    -5.3140 c3         1 A1A      -0.223400
      7 C8          -3.8940    15.2040    -5.0630 c          1 A1A       0.721000
      8 C10         -1.3460    14.0720    -0.9090 ca         1 A1A       0.132500
      9 C13         -2.8490    17.2640    -0.1150 cc         1 A1A      -0.178100
     10 C15         -1.9360    15.2710    -0.5250 ca         1 A1A      -0.168800
     11 O4           0.0430    13.2650    -2.6440 o          1 A1A      -0.600100
     12 C9          -1.0580    13.6940    -2.3390 c          1 A1A       0.498600
     13 C14         -2.4540    16.4530    -1.1360 cd         1 A1A      -0.169200
     14 N4          -2.6070    16.6610     1.0930 na         1 A1A      -0.333400
     15 C12         -2.0510    15.4490     0.8770 ca         1 A1A       0.110500
     16 C11         -1.1330    13.4770     1.2860 ca         1 A1A       0.119900
     17 N2          -0.9450    13.1930    -0.0010 nb         1 A1A      -0.176000
     18 O3          -4.1140    15.4890    -3.8570 o          1 A1A      -0.727500
     19 O2          -4.1480    15.9140    -6.0460 o          1 A1A      -0.727500
     20 C3          -1.8430     9.7590    -4.5360 ca         1 A1A      -0.090000
     21 C2          -0.9020     9.4850    -5.5140 ca         1 A1A      -0.166000
     22 C16         -0.5780    11.8480    -5.8350 ca         1 A1A      -0.143000
     23 C1          -0.2600    10.5330    -6.1740 ca         1 A1A       0.285000
     24 N            0.7000    10.1870    -7.1400 nu         1 A1A      -0.907100
     25 S            1.3280    11.1750    -8.3110 s6         1 A1A       1.219100
     26 O            1.9230    12.3310    -7.6640 o          1 A1A      -0.537000
     27 O1           2.1640    10.3130    -9.1280 o          1 A1A      -0.537000
     28 C           -0.0600    11.7150    -9.2810 c3         1 A1A      -0.378100
     29 H12         -2.9190    14.3680    -2.9520 hn         1 A1A       0.387500
     30 H8          -2.9150    11.2650    -3.4500 ha         1 A1A       0.128000
     31 H           -1.1860    14.2090    -5.0330 h1         1 A1A       0.056700
     32 H9          -3.1240    13.6470    -6.3800 hc         1 A1A       0.035700
     33 H10         -4.0040    13.0590    -4.9780 hc         1 A1A       0.035700
     34 H14         -3.2940    18.2440    -0.1520 h4         1 A1A       0.214000
     35 H15         -2.5480    16.6680    -2.1870 ha         1 A1A       0.255000
     36 H1          -2.8100    17.0580     1.9970 hn         1 A1A       0.351000
     37 H13         -0.8060    12.7260     1.9960 h5         1 A1A       0.037100
     38 H7          -2.3300     8.9360    -4.0280 ha         1 A1A       0.102000
     39 H6          -0.6650     8.4590    -5.7660 ha         1 A1A       0.099000
     40 H16         -0.0810    12.6850    -6.3050 ha         1 A1A       0.134000
     41 H5           0.7150     9.2110    -7.4100 hn         1 A1A       0.494000
     42 H4          -0.5330    10.8450    -9.7310 h1         1 A1A       0.103700
     43 H3          -0.7720    12.2480    -8.6550 h1         1 A1A       0.103700
     44 H2           0.3170    12.3810   -10.0560 h1         1 A1A       0.103700
@<TRIPOS>BOND
     1     1     5 1   
     2     1    12 1   
     3     1    29 1   
     4     2    15 ar  
     5     2    16 ar  
     6     3     4 ar  
     7     3    20 ar  
     8     3    30 1   
     9     4     5 1   
    10     4    22 ar  
    11     5     6 1   
    12     5    31 1   
    13     6     7 1   
    14     6    32 1   
    15     6    33 1   
    16     7    18 1   
    17     7    19 1   
    18     8    10 ar  
    19     8    12 1   
    20     8    17 ar  
    21     9    13 2   
    22     9    14 1   
    23     9    34 1   
    24    10    13 1   
    25    10    15 ar  
    26    11    12 2   
    27    13    35 1   
    28    14    15 1   
    29    14    36 1   
    30    16    17 ar  
    31    16    37 1   
    32    20    21 ar  
    33    20    38 1   
    34    21    23 ar  
    35    21    39 1   
    36    22    23 ar  
    37    22    40 1   
    38    23    24 1   
    39    24    25 1   
    40    24    41 1   
    41    25    26 2   
    42    25    27 2   
    43    25    28 1   
    44    28    42 1   
    45    28    43 1   
    46    28    44 1   
@<TRIPOS>SUBSTRUCTURE
     1 A1A         1 TEMP              0 ****  ****    0 ROOT
