@<TRIPOS>MOLECULE
A1A
   63    67     1     0     0
SMALL
No Charge or Current Charge


@<TRIPOS>ATOM
      1 N1           3.3630   -16.3220    17.8580 nu         1 A1A      -0.925100
      2 N3           6.2430   -14.1400    15.8000 nb         1 A1A      -0.230000
      3 C4           8.8230   -17.6500    18.1560 cc         1 A1A      -0.112800
      4 C5           7.7470   -16.8380    17.6730 cc         1 A1A       0.015700
      5 C6           6.4010   -16.9690    17.9510 cd         1 A1A      -0.191200
      6 C7           5.6800   -15.9310    17.2470 ca         1 A1A      -0.254800
      7 C8           4.3240   -15.5970    17.1720 ca         1 A1A       0.437900
      8 C10          1.8990   -14.7070    18.9660 ca         1 A1A      -0.107300
      9 C13          1.7790   -12.3840    20.5960 ca         1 A1A       0.012700
     10 C15          2.4290   -14.7230    20.2710 ca         1 A1A      -0.005000
     11 C17          2.6030   -10.9630    22.6320 c6         1 A1A      -0.054400
     12 C22          4.9130   -13.8740    15.7710 ca         1 A1A       0.177900
     13 C24         10.1480   -17.4840    17.8550 cd         1 A1A       0.129900
     14 S            3.0850   -13.6730    22.7380 sy         1 A1A       1.049500
     15 O            2.5090   -14.8400    23.4190 o          1 A1A      -0.523000
     16 C16          2.4940   -12.1850    23.5680 c6         1 A1A      -0.306400
     17 C18          1.6420   -11.0970    21.4290 c6         1 A1A      -0.049100
     18 C12          1.2500   -12.3790    19.2910 ca         1 A1A      -0.132000
     19 C11          1.3110   -13.5250    18.4820 ca         1 A1A      -0.028000
     20 C14          2.3700   -13.5750    21.0870 ca         1 A1A      -0.246500
     21 C9           1.9570   -15.9540    18.0780 c3         1 A1A       0.290800
     22 C19          1.1610   -17.1610    18.6670 c3         1 A1A      -0.071700
     23 N2           3.9330   -14.5510    16.4180 nb         1 A1A      -0.304000
     24 C23          6.6110   -15.1900    16.5560 ca         1 A1A       0.150500
     25 N4           7.8610   -15.7360    16.8110 na         1 A1A      -0.313400
     26 C3           8.7400   -18.7580    19.0190 cc         1 A1A      -0.168000
     27 O2          10.9250   -18.4320    18.4840 os         1 A1A      -0.209000
     28 C2          10.0230   -19.2030    19.1900 cd         1 A1A       0.136300
     29 C1          10.5410   -20.3620    20.0180 c3         1 A1A       0.132500
     30 N           10.7160   -21.6230    19.2500 n7         1 A1A      -0.855400
     31 C            9.4840   -22.1950    18.6650 c3         1 A1A       0.141100
     32 H10          3.7210   -17.1160    18.3810 hn         1 A1A       0.499000
     33 H9           5.9720   -17.7320    18.5950 ha         1 A1A       0.202000
     34 H13          2.8940   -15.6310    20.6500 ha         1 A1A       0.126000
     35 H16          2.3600   -10.0480    23.1900 hc         1 A1A       0.065700
     36 H17          3.6370   -10.8400    22.2770 hc         1 A1A       0.065700
     37 H22          0.5820   -19.2120    18.1480 hc         1 A1A       0.038867
     38 H21          0.6750   -18.1180    16.7530 hc         1 A1A       0.038867
     39 H23          2.1600   -18.7410    17.5020 hc         1 A1A       0.038867
     40 H25         -0.8320   -17.6400    19.4450 hc         1 A1A       0.038867
     41 H26         -0.3030   -15.9980    19.8270 hc         1 A1A       0.038867
     42 H24         -0.8360   -16.3950    18.1780 hc         1 A1A       0.038867
     43 H27          4.6000   -13.0270    15.1620 h5         1 A1A       0.041100
     44 H28         10.6510   -16.7580    17.2300 h4         1 A1A       0.052100
     45 H15          1.4530   -12.3830    23.8500 h1         1 A1A       0.106200
     46 H14          3.1100   -12.0740    24.4690 h1         1 A1A       0.106200
     47 H18          0.6070   -11.0270    21.7910 hc         1 A1A       0.063700
     48 H19          1.7830   -10.2250    20.7740 hc         1 A1A       0.063700
     49 H12          0.7830   -11.4790    18.8990 ha         1 A1A       0.116000
     50 H11          0.8970   -13.4910    17.4760 ha         1 A1A       0.125000
     51 H            1.4970   -15.7090    17.1090 h1         1 A1A       0.082700
     52 H20          1.6600   -17.4800    19.5910 hc         1 A1A       0.050700
     53 H1           8.7280   -15.3820    16.4250 hn         1 A1A       0.360000
     54 H8           7.8370   -19.1730    19.4560 ha         1 A1A       0.143000
     55 H6           9.8480   -20.5210    20.8560 h1         1 A1A       0.048700
     56 H7          11.5010   -20.0580    20.4560 h1         1 A1A       0.048700
     57 H5          11.1210   -22.3270    19.8830 hn         1 A1A       0.415000
     58 H2           9.7070   -23.1300    18.1350 h1         1 A1A       0.033033
     59 H4           8.7440   -22.4150    19.4460 h1         1 A1A       0.033033
     60 H3           9.0290   -21.5010    17.9460 h1         1 A1A       0.033033
     61 C20          1.1450   -18.3800    17.7080 c3         1 A1A      -0.088100
     62 C21         -0.2900   -16.7720    19.0510 c3         1 A1A      -0.088100
     63 O1           4.5430   -13.5520    22.5950 o          1 A1A      -0.523000
@<TRIPOS>BOND
     1     1     7 1   
     2     1    21 1   
     3     1    32 1   
     4     2    12 ar  
     5     2    24 ar  
     6     3     4 1   
     7     3    13 2   
     8     3    26 1   
     9     4     5 2   
    10     4    25 1   
    11     5     6 1   
    12     5    33 1   
    13     6     7 ar  
    14     6    24 ar  
    15     7    23 ar  
    16     8    10 ar  
    17     8    19 ar  
    18     8    21 1   
    19     9    17 1   
    20     9    18 ar  
    21     9    20 ar  
    22    10    20 ar  
    23    10    34 1   
    24    11    16 1   
    25    11    17 1   
    26    11    35 1   
    27    11    36 1   
    28    12    23 ar  
    29    12    43 1   
    30    13    27 1   
    31    13    44 1   
    32    14    15 2   
    33    14    16 1   
    34    14    20 1   
    35    14    63 2   
    36    16    45 1   
    37    16    46 1   
    38    17    47 1   
    39    17    48 1   
    40    18    19 ar  
    41    18    49 1   
    42    19    50 1   
    43    21    22 1   
    44    21    51 1   
    45    22    52 1   
    46    22    61 1   
    47    22    62 1   
    48    24    25 1   
    49    25    53 1   
    50    26    28 2   
    51    26    54 1   
    52    27    28 1   
    53    28    29 1   
    54    29    30 1   
    55    29    55 1   
    56    29    56 1   
    57    30    31 1   
    58    30    57 1   
    59    31    58 1   
    60    31    59 1   
    61    31    60 1   
    62    37    61 1   
    63    38    61 1   
    64    39    61 1   
    65    40    62 1   
    66    41    62 1   
    67    42    62 1   
@<TRIPOS>SUBSTRUCTURE
     1 A1A         1 TEMP              0 ****  ****    0 ROOT
