@<TRIPOS>MOLECULE
A1A
   39    41     1     0     0
SMALL
abcg2


@<TRIPOS>ATOM
      1 N1          -7.0170    15.1030    -1.0840 nc         1 A1A      -0.538100
      2 N3          -4.8870    15.7140     1.6180 nb         1 A1A      -0.690000
      3 C4          -2.6660    15.3630    -2.1090 c          1 A1A       0.599700
      4 C5          -0.5320    14.8120    -3.1550 c3         1 A1A       0.165000
      5 C6           0.9350    14.8730    -2.7050 c3         1 A1A      -0.222400
      6 C7           1.3170    13.8760    -1.5930 c          1 A1A       0.720000
      7 C8          -0.8180    13.5150    -3.8840 ca         1 A1A      -0.048300
      8 C10         -0.8170    12.2640    -5.9580 ca         1 A1A      -0.092000
      9 C13         -1.2120    12.3630    -3.2110 ca         1 A1A      -0.089500
     10 C15         -3.5750    15.8320     1.5730 ca         1 A1A       0.366900
     11 C11         -1.2050    11.1290    -5.2620 ca         1 A1A      -0.022900
     12 C9          -0.6280    13.4470    -5.2600 ca         1 A1A      -0.089500
     13 C12         -1.4080    11.1690    -3.8910 ca         1 A1A      -0.092000
     14 O2           0.5260    13.8040    -0.6150 o          1 A1A      -0.724500
     15 O1           2.3780    13.2520    -1.7220 o          1 A1A      -0.724500
     16 N2          -1.3840    15.0110    -2.0060 ns         1 A1A      -0.488900
     17 O           -3.2370    15.5880    -3.1690 o          1 A1A      -0.640100
     18 C3          -3.4120    15.4770    -0.8150 ca         1 A1A      -0.017600
     19 C14         -2.8050    15.7210     0.4020 ca         1 A1A      -0.172000
     20 C16         -5.4560    15.4820     0.4410 ca         1 A1A       0.353500
     21 N           -6.7760    15.3140     0.2130 na         1 A1A      -0.038100
     22 C           -7.8390    15.3630     1.1850 c3         1 A1A       0.093900
     23 C2          -4.8080    15.3660    -0.8030 ca         1 A1A      -0.229900
     24 C1          -5.8680    15.1260    -1.7140 cd         1 A1A       0.391800
     25 H           -0.6990    15.6320    -3.8590 h1         1 A1A       0.045700
     26 H7           1.5700    14.7260    -3.5800 hc         1 A1A       0.039200
     27 H6           1.1340    15.8870    -2.3400 hc         1 A1A       0.039200
     28 H10         -0.6660    12.2390    -7.0290 ha         1 A1A       0.115500
     29 H12         -1.3690    12.3830    -2.1410 ha         1 A1A       0.124000
     30 H14         -3.0740    16.0300     2.5140 h4         1 A1A       0.017100
     31 H9          -0.3290    14.3350    -5.8050 ha         1 A1A       0.124000
     32 H11         -1.7150    10.2860    -3.3470 ha         1 A1A       0.115500
     33 H5          -0.9570    14.6590    -1.1420 hn         1 A1A       0.390500
     34 H13         -1.7340    15.8510     0.4870 ha         1 A1A       0.151000
     35 H2          -8.7600    15.0590     0.6970 h1         1 A1A       0.049033
     36 H3          -7.6320    14.6810     2.0080 h1         1 A1A       0.049033
     37 H1          -7.9620    16.3700     1.5820 h1         1 A1A       0.049033
     38 H4          -5.8270    14.9750    -2.7800 h4         1 A1A       0.069800
     39 BR          -1.4680     9.5060    -6.1950 br         1 A1A      -0.147100
@<TRIPOS>BOND
     1     1    21 1   
     2     1    24 2   
     3     2    10 ar  
     4     2    20 ar  
     5     3    16 1   
     6     3    17 2   
     7     3    18 1   
     8     4     5 1   
     9     4     7 1   
    10     4    16 1   
    11     4    25 1   
    12     5     6 1   
    13     5    26 1   
    14     5    27 1   
    15     6    14 1   
    16     6    15 1   
    17     7     9 ar  
    18     7    12 ar  
    19     8    11 ar  
    20     8    12 ar  
    21     8    28 1   
    22     9    13 ar  
    23     9    29 1   
    24    10    19 ar  
    25    10    30 1   
    26    11    13 ar  
    27    11    39 1   
    28    12    31 1   
    29    13    32 1   
    30    16    33 1   
    31    18    19 ar  
    32    18    23 ar  
    33    19    34 1   
    34    20    21 1   
    35    20    23 ar  
    36    21    22 1   
    37    22    35 1   
    38    22    36 1   
    39    22    37 1   
    40    23    24 1   
    41    24    38 1   
@<TRIPOS>SUBSTRUCTURE
     1 A1A         1 TEMP              0 ****  ****    0 ROOT
