@<TRIPOS>MOLECULE
A1A
   29    30     1     0     0
SMALL
No Charge or Current Charge


@<TRIPOS>ATOM
      1 N1          -8.1250     4.0990   -13.5890 ns         1 A1A      -0.367100
      2 C4          -8.1050     4.3660   -16.0280 ca         1 A1A      -0.100600
      3 C5          -9.2090     3.4890   -16.1830 ca         1 A1A      -0.101000
      4 C6          -9.5340     2.9400   -17.4320 ca         1 A1A      -0.086000
      5 C7          -8.7650     3.2600   -18.5550 ca         1 A1A      -0.101000
      6 C8          -7.6650     4.1200   -18.4290 ca         1 A1A      -0.068000
      7 F2          -6.3670     6.8840   -16.9860 f          1 A1A      -0.107000
      8 F           -5.2670     5.4720   -18.2020 f          1 A1A      -0.107000
      9 F1          -5.2510     5.2530   -16.0570 f          1 A1A      -0.107000
     10 C9          -7.3070     4.6800   -17.1770 ca         1 A1A      -0.152300
     11 C3          -7.8410     4.9480   -14.6460 c          1 A1A       0.612700
     12 O           -7.4780     6.1030   -14.4670 o          1 A1A      -0.559100
     13 C2          -8.0750     4.3650   -12.2230 cc         1 A1A      -0.060400
     14 C1          -8.3740     3.4520   -11.2620 cd         1 A1A      -0.227000
     15 C11         -7.7290     5.5550   -11.5480 cc         1 A1A       0.251900
     16 N2          -7.7900     5.4530   -10.2340 nd         1 A1A      -0.515800
     17 N           -8.1930     4.1360   -10.0540 na         1 A1A       0.140800
     18 C           -8.3900     3.5880    -8.7040 c3         1 A1A       0.076900
     19 H4          -8.3990     3.1680   -13.8750 hn         1 A1A       0.323500
     20 H5          -9.8510     3.2460   -15.3390 ha         1 A1A       0.125000
     21 H6         -10.3900     2.2770   -17.5300 ha         1 A1A       0.123000
     22 H7          -9.0200     2.8400   -19.5260 ha         1 A1A       0.125000
     23 H8          -7.0890     4.3430   -19.3250 ha         1 A1A       0.136000
     24 H3          -8.6870     2.4160   -11.3230 h4         1 A1A       0.152000
     25 H9          -7.4330     6.5020   -11.9770 h4         1 A1A       0.065100
     26 H1          -7.4500     3.6500    -8.1430 h1         1 A1A       0.056367
     27 H2          -9.1650     4.1640    -8.1850 h1         1 A1A       0.056367
     28 H           -8.7030     2.5390    -8.7720 h1         1 A1A       0.056367
     29 C10         -6.0490     5.5740   -17.1020 c3         1 A1A       0.359300
@<TRIPOS>BOND
     1     1    11 1   
     2     1    13 1   
     3     1    19 1   
     4     2     3 ar  
     5     2    10 ar  
     6     2    11 1   
     7     3     4 ar  
     8     3    20 1   
     9     4     5 ar  
    10     4    21 1   
    11     5     6 ar  
    12     5    22 1   
    13     6    10 ar  
    14     6    23 1   
    15     7    29 1   
    16     8    29 1   
    17     9    29 1   
    18    10    29 1   
    19    11    12 2   
    20    13    14 2   
    21    13    15 1   
    22    14    17 1   
    23    14    24 1   
    24    15    16 2   
    25    15    25 1   
    26    16    17 1   
    27    17    18 1   
    28    18    26 1   
    29    18    27 1   
    30    18    28 1   
@<TRIPOS>SUBSTRUCTURE
     1 A1A         1 TEMP              0 ****  ****    0 ROOT
