@<TRIPOS>MOLECULE
A1A
   31    33     1     0     0
SMALL
abcg2


@<TRIPOS>ATOM
      1 N1           0.9230    12.1210    -7.1600 nb         1 A1A      -0.314000
      2 N3          -0.7570     8.9490    -8.9380 na         1 A1A      -0.328400
      3 C4          -2.0600    14.2760    -2.8560 cx         1 A1A      -0.143400
      4 C5          -2.2510    15.2940    -3.9410 cx         1 A1A      -0.143400
      5 C6           0.1260    11.3020    -6.4630 ca         1 A1A       0.438900
      6 C7           1.1440    11.8580    -8.4470 ca         1 A1A       0.180900
      7 C8          -0.1250    10.0540    -8.4730 ca         1 A1A       0.146500
      8 C10         -1.3210     9.1120    -6.7820 cc         1 A1A      -0.177200
      9 C            0.4860    12.1500    -2.8850 c          1 A1A       0.718000
     10 O1          -0.1950    11.1430    -2.6010 o          1 A1A      -0.721500
     11 C1           0.5290    12.5730    -4.3760 c3         1 A1A       0.078500
     12 C2          -0.1240    13.9450    -4.5800 c3         1 A1A      -0.038400
     13 C3          -1.5940    13.9830    -4.2490 cx         1 A1A      -0.090700
     14 N           -0.1020    11.5430    -5.1710 nu         1 A1A      -0.862100
     15 C11         -0.4540    10.1930    -7.1230 ca         1 A1A      -0.273800
     16 C9          -1.4780     8.3770    -7.9200 cd         1 A1A      -0.227100
     17 N2           0.6720    10.8680    -9.1760 nb         1 A1A      -0.287000
     18 H1          -0.6920     8.5960    -9.8800 hn         1 A1A       0.343000
     19 H7          -2.9330    13.7550    -2.4830 hc         1 A1A       0.062700
     20 H6          -1.3060    14.4710    -2.1030 hc         1 A1A       0.062700
     21 H9          -3.2530    15.4720    -4.3100 hc         1 A1A       0.062700
     22 H8          -1.6250    16.1790    -3.9200 hc         1 A1A       0.062700
     23 H11          1.8000    12.5570    -8.9570 h5         1 A1A       0.023100
     24 H13         -1.7740     8.9020    -5.8270 ha         1 A1A       0.206000
     25 H            1.5790    12.6590    -4.6730 h1         1 A1A       0.061700
     26 H4           0.4120    14.6750    -3.9670 hc         1 A1A       0.042700
     27 H3           0.0220    14.2520    -5.6190 hc         1 A1A       0.042700
     28 H5          -2.2030    13.2790    -4.8080 hc         1 A1A       0.066700
     29 H10         -0.6080    10.8630    -4.6200 hn         1 A1A       0.528000
     30 H12         -2.0520     7.4820    -8.0920 h4         1 A1A       0.199000
     31 O            1.1420    12.8650    -2.1090 o          1 A1A      -0.721500
@<TRIPOS>BOND
     1     1     5 ar  
     2     1     6 ar  
     3     2     7 1   
     4     2    16 1   
     5     2    18 1   
     6     3     4 1   
     7     3    13 1   
     8     3    19 1   
     9     3    20 1   
    10     4    13 1   
    11     4    21 1   
    12     4    22 1   
    13     5    14 1   
    14     5    15 ar  
    15     6    17 ar  
    16     6    23 1   
    17     7    15 ar  
    18     7    17 ar  
    19     8    15 1   
    20     8    16 2   
    21     8    24 1   
    22     9    10 1   
    23     9    11 1   
    24     9    31 1   
    25    11    12 1   
    26    11    14 1   
    27    11    25 1   
    28    12    13 1   
    29    12    26 1   
    30    12    27 1   
    31    13    28 1   
    32    14    29 1   
    33    16    30 1   
@<TRIPOS>SUBSTRUCTURE
     1 A1A         1 TEMP              0 ****  ****    0 ROOT
