@<TRIPOS>MOLECULE
A1A
   37    39     1     0     0
SMALL
abcg2


@<TRIPOS>ATOM
      1 N1          -4.5590    17.1140    -0.6070 na         1 A1A      -0.225700
      2 C4          -3.1930    13.7240    -2.2860 ca         1 A1A       0.282500
      3 C5          -4.5690    13.7180    -2.0180 ca         1 A1A      -0.095000
      4 C6          -5.1650    14.8230    -1.4420 ca         1 A1A      -0.114000
      5 C7          -4.3320    15.8950    -1.1610 ca         1 A1A      -0.092200
      6 C8          -3.3840    17.8100    -0.5530 cc         1 A1A      -0.175100
      7 C10         -2.9480    15.8220    -1.4670 ca         1 A1A       0.339800
      8 C13         -1.0620    12.4610    -7.3890 ca         1 A1A      -0.093500
      9 C15         -0.8820    10.0610    -7.2050 ca         1 A1A      -0.093500
     10 C14         -1.0530    11.2030    -7.9730 ca         1 A1A      -0.029900
     11 C12         -0.8920    12.5700    -6.0160 ca         1 A1A      -0.101500
     12 C16         -0.7180    10.1940    -5.8340 ca         1 A1A      -0.101500
     13 C11         -0.7180    11.4420    -5.2210 ca         1 A1A      -0.048300
     14 C2          -0.4750    11.5460    -3.7320 c3         1 A1A       0.164000
     15 C1           1.0020    11.7780    -3.4290 c3         1 A1A      -0.226400
     16 C            1.3470    11.6540    -1.9270 c          1 A1A       0.719000
     17 O1           0.7840    10.7300    -1.3070 o          1 A1A      -0.726500
     18 O            2.1810    12.4630    -1.4790 o          1 A1A      -0.726500
     19 N           -1.2510    12.6030    -3.1240 ns         1 A1A      -0.451900
     20 C3          -2.5690    12.5090    -2.9080 c          1 A1A       0.504600
     21 O2          -3.2340    11.5190    -3.1830 o          1 A1A      -0.631100
     22 N2          -2.3950    14.7480    -2.0230 nb         1 A1A      -0.609000
     23 C9          -2.3650    17.0620    -1.0690 cd         1 A1A      -0.330800
     24 H1          -5.4490    17.4580    -0.2860 hn         1 A1A       0.343000
     25 H6          -5.1590    12.8480    -2.2640 ha         1 A1A       0.144000
     26 H7          -6.2250    14.8450    -1.2250 ha         1 A1A       0.111000
     27 H8          -3.3620    18.8070    -0.1410 h4         1 A1A       0.206000
     28 H10         -0.9050    13.5560    -5.5670 ha         1 A1A       0.122000
     29 H13         -0.5910     9.3010    -5.2330 ha         1 A1A       0.122000
     30 H           -0.7630    10.5980    -3.2730 h1         1 A1A       0.100700
     31 H3           1.3150    12.7470    -3.8280 hc         1 A1A       0.031200
     32 H4           1.5810    11.0240    -3.9720 hc         1 A1A       0.031200
     33 H5          -0.8010    13.4700    -2.8690 hn         1 A1A       0.347500
     34 H9          -1.3320    17.3570    -1.1530 ha         1 A1A       0.221000
     35 H11         -1.1980    13.3520    -7.9870 ha         1 A1A       0.115000
     36 BR          -1.2830    11.0400    -9.8430 br         1 A1A      -0.147100
     37 H12         -0.8820     9.0780    -7.6570 ha         1 A1A       0.115000
@<TRIPOS>BOND
     1     1     5 1   
     2     1     6 1   
     3     1    24 1   
     4     2     3 ar  
     5     2    20 1   
     6     2    22 ar  
     7     3     4 ar  
     8     3    25 1   
     9     4     5 ar  
    10     4    26 1   
    11     5     7 ar  
    12     6    23 2   
    13     6    27 1   
    14     7    22 ar  
    15     7    23 1   
    16     8    10 ar  
    17     8    11 ar  
    18     8    35 1   
    19     9    10 ar  
    20     9    12 ar  
    21     9    37 1   
    22    10    36 1   
    23    11    13 ar  
    24    11    28 1   
    25    12    13 ar  
    26    12    29 1   
    27    13    14 1   
    28    14    15 1   
    29    14    19 1   
    30    14    30 1   
    31    15    16 1   
    32    15    31 1   
    33    15    32 1   
    34    16    17 1   
    35    16    18 1   
    36    19    20 1   
    37    19    33 1   
    38    20    21 2   
    39    23    34 1   
@<TRIPOS>SUBSTRUCTURE
     1 A1A         1 TEMP              0 ****  ****    0 ROOT
