@<TRIPOS>MOLECULE
A1A
   41    42     1     0     0
SMALL
No Charge or Current Charge


@<TRIPOS>ATOM
      1 N1          -0.7940    13.5180    -3.7280 ns         1 A1A      -0.463900
      2 C4          -4.0440    15.1840    -2.8690 ca         1 A1A      -0.071000
      3 C5          -2.8000    14.5290    -2.7300 ca         1 A1A       0.244500
      4 C6          -1.9940    14.1510    -3.9770 c          1 A1A       0.501600
      5 C7           0.1540    13.0630    -4.7430 c3         1 A1A       0.170000
      6 C8           1.5920    13.0080    -4.1810 c3         1 A1A      -0.219400
      7 C10         -0.2800    11.7490    -5.4020 ca         1 A1A      -0.046300
      8 C13         -1.0720     9.3500    -6.6600 ca         1 A1A      -0.022900
      9 C15         -0.0750    11.5650    -6.7860 ca         1 A1A      -0.087500
     10 Br          -1.6080     7.7250    -7.5130 br         1 A1A      -0.154100
     11 C12         -1.2810     9.5200    -5.2830 ca         1 A1A      -0.096000
     12 C11         -0.8860    10.7150    -4.6550 ca         1 A1A      -0.087500
     13 C14         -0.4690    10.3700    -7.4130 ca         1 A1A      -0.096000
     14 C9           1.6750    12.1110    -2.9410 c          1 A1A       0.715000
     15 O2           1.3600    12.5950    -1.8650 o          1 A1A      -0.728500
     16 O1           2.0160    10.9480    -3.0880 o          1 A1A      -0.728500
     17 O           -2.3700    14.3830    -5.1220 o          1 A1A      -0.659100
     18 C3          -4.7900    15.5330    -1.7260 ca         1 A1A      -0.188000
     19 N2          -2.2930    14.2230    -1.5000 nb         1 A1A      -0.596000
     20 C16         -3.0180    14.5640    -0.4040 ca         1 A1A       0.263900
     21 C2          -4.2820    15.2230    -0.4480 ca         1 A1A       0.285000
     22 N           -5.0150    15.5670     0.7320 nh         1 A1A      -0.832400
     23 C1          -4.3580    15.6050     2.0610 c3         1 A1A       0.224600
     24 C           -6.4720    15.8460     0.6930 c3         1 A1A       0.224600
     25 H9          -0.5540    13.3920    -2.7470 hn         1 A1A       0.395500
     26 H            0.1620    13.8290    -5.5300 h1         1 A1A       0.039700
     27 H11          2.2320    12.6260    -4.9840 hc         1 A1A       0.036200
     28 H10          1.8190    14.0440    -3.9000 hc         1 A1A       0.036200
     29 H16          0.3920    12.3500    -7.3770 ha         1 A1A       0.127500
     30 H14         -1.7460     8.7290    -4.6990 ha         1 A1A       0.113500
     31 H13         -1.0490    10.8320    -3.5870 ha         1 A1A       0.127500
     32 H15         -0.3070    10.2370    -8.4800 ha         1 A1A       0.113500
     33 H7          -5.7400    16.0450    -1.8470 ha         1 A1A       0.107000
     34 H17         -2.5680    14.2900     0.5490 h4         1 A1A       0.020100
     35 H5          -3.3690    16.0770     1.9890 h1         1 A1A       0.033033
     36 H6          -4.9510    16.1900     2.7770 h1         1 A1A       0.033033
     37 H4          -4.2380    14.5880     2.4600 h1         1 A1A       0.033033
     38 H3          -6.6580    16.8650     0.3280 h1         1 A1A       0.033033
     39 H1          -6.9830    15.1330     0.0330 h1         1 A1A       0.033033
     40 H2          -6.9180    15.7500     1.6920 h1         1 A1A       0.033033
     41 H8          -4.4270    15.4200    -3.8580 ha         1 A1A       0.136000
@<TRIPOS>BOND
     1     1     4 1   
     2     1     5 1   
     3     1    25 1   
     4     2     3 ar  
     5     2    18 ar  
     6     2    41 1   
     7     3     4 1   
     8     3    19 ar  
     9     4    17 2   
    10     5     6 1   
    11     5     7 1   
    12     5    26 1   
    13     6    14 1   
    14     6    27 1   
    15     6    28 1   
    16     7     9 ar  
    17     7    12 ar  
    18     8    10 1   
    19     8    11 ar  
    20     8    13 ar  
    21     9    13 ar  
    22     9    29 1   
    23    11    12 ar  
    24    11    30 1   
    25    12    31 1   
    26    13    32 1   
    27    14    15 1   
    28    14    16 1   
    29    18    21 ar  
    30    18    33 1   
    31    19    20 ar  
    32    20    21 ar  
    33    20    34 1   
    34    21    22 1   
    35    22    23 1   
    36    22    24 1   
    37    23    35 1   
    38    23    36 1   
    39    23    37 1   
    40    24    38 1   
    41    24    39 1   
    42    24    40 1   
@<TRIPOS>SUBSTRUCTURE
     1 A1A         1 TEMP              0 ****  ****    0 ROOT
