@<TRIPOS>MOLECULE
A1A
   37    39     1     0     0
SMALL
No Charge or Current Charge


@<TRIPOS>ATOM
      1 N1          -6.5900    15.4670    -0.9500 nb         1 A1A      -0.712000
      2 C4          -4.3180    15.0350    -1.7540 ca         1 A1A      -0.221600
      3 C5          -5.6930    15.2980    -1.9590 ca         1 A1A       0.400900
      4 C6          -6.1170    15.3720     0.3020 ca         1 A1A       0.373500
      5 C7          -5.9010    15.3210     2.6080 cc         1 A1A      -0.182100
      6 C8          -4.6720    15.0880     2.0180 cd         1 A1A      -0.212200
      7 C10         -3.8440    14.9390    -0.4230 ca         1 A1A       0.017000
      8 C13         -1.4650    10.6330    -4.2320 ca         1 A1A      -0.094000
      9 C15         -0.9550    11.6550    -6.3800 ca         1 A1A      -0.094000
     10 C14         -1.2350    10.5140    -5.6120 ca         1 A1A      -0.022900
     11 C12         -1.4150    11.8970    -3.6190 ca         1 A1A      -0.090000
     12 C16         -0.9060    12.9190    -5.7670 ca         1 A1A      -0.090000
     13 C11         -1.1360    13.0530    -4.3820 ca         1 A1A      -0.046300
     14 C2          -1.0810    14.4410    -3.7380 c3         1 A1A       0.167000
     15 C1           0.3140    14.7880    -3.1720 c3         1 A1A      -0.221400
     16 C            0.6090    13.9950    -1.8940 c          1 A1A       0.720000
     17 O1           1.2640    12.9690    -1.9840 o          1 A1A      -0.727500
     18 O            0.1180    14.4000    -0.8500 o          1 A1A      -0.727500
     19 N           -2.1070    14.6240    -2.7130 ns         1 A1A      -0.492900
     20 C3          -3.4370    14.8690    -2.9550 c          1 A1A       0.610700
     21 O2          -3.8740    14.9460    -4.0940 o          1 A1A      -0.652100
     22 C9          -4.7970    15.1180     0.5830 ca         1 A1A      -0.154800
     23 N2          -6.7760    15.4930     1.5110 na         1 A1A      -0.334400
     24 H6          -6.1040    15.3800    -2.9650 h4         1 A1A       0.037100
     25 H7          -6.2090    15.3760     3.6510 h4         1 A1A       0.204000
     26 H8          -3.7480    14.9090     2.5660 ha         1 A1A       0.209000
     27 H9          -2.8060    14.7380    -0.1660 ha         1 A1A       0.150000
     28 H10         -1.5910    11.9740    -2.5480 ha         1 A1A       0.125000
     29 H13         -0.6880    13.7980    -6.3700 ha         1 A1A       0.125000
     30 H           -1.2880    15.1750    -4.5290 h1         1 A1A       0.043700
     31 H3           0.2530    15.8560    -2.9290 hc         1 A1A       0.038200
     32 H4           1.0480    14.5630    -3.9550 hc         1 A1A       0.038200
     33 H5          -1.8010    14.6070    -1.7470 hn         1 A1A       0.385500
     34 H1          -7.7690    15.6830     1.5770 hn         1 A1A       0.350000
     35 H11         -1.6800     9.7490    -3.6370 ha         1 A1A       0.114500
     36 Br          -1.3020     8.7950    -6.4460 br         1 A1A      -0.150100
     37 H12         -0.7760    11.5630    -7.4490 ha         1 A1A       0.114500
@<TRIPOS>BOND
     1     1     3 ar  
     2     1     4 ar  
     3     2     3 ar  
     4     2     7 ar  
     5     2    20 1   
     6     3    24 1   
     7     4    22 ar  
     8     4    23 1   
     9     5     6 2   
    10     5    23 1   
    11     5    25 1   
    12     6    22 1   
    13     6    26 1   
    14     7    22 ar  
    15     7    27 1   
    16     8    10 ar  
    17     8    11 ar  
    18     8    35 1   
    19     9    10 ar  
    20     9    12 ar  
    21     9    37 1   
    22    10    36 1   
    23    11    13 ar  
    24    11    28 1   
    25    12    13 ar  
    26    12    29 1   
    27    13    14 1   
    28    14    15 1   
    29    14    19 1   
    30    14    30 1   
    31    15    16 1   
    32    15    31 1   
    33    15    32 1   
    34    16    17 1   
    35    16    18 1   
    36    19    20 1   
    37    19    33 1   
    38    20    21 2   
    39    23    34 1   
@<TRIPOS>SUBSTRUCTURE
     1 A1A         1 TEMP              0 ****  ****    0 ROOT
