@<TRIPOS>MOLECULE
A1A
   35    37     1     0     0
SMALL
abcg2


@<TRIPOS>ATOM
      1 N1          -0.7590    14.2650    -0.2820 nb         1 A1A      -0.169000
      2 N3          -3.4610    16.6150     1.4850 na         1 A1A      -0.332400
      3 C4          -1.7480    14.8040    -0.9840 ca         1 A1A       0.125500
      4 C5          -0.6810    14.5160     1.0210 ca         1 A1A       0.136900
      5 C6          -2.4830    15.8040     1.0250 ca         1 A1A       0.110500
      6 C7          -4.2850    16.9530     0.4430 cc         1 A1A      -0.189100
      7 C8          -3.8560    16.3690    -0.7110 cd         1 A1A      -0.175200
      8 C10         -1.5800    12.1350    -4.5630 ca         1 A1A      -0.026300
      9 C13         -2.8240    10.7850    -6.1020 ca         1 A1A       0.319400
     10 C3          -1.8150    14.4970    -2.4540 c          1 A1A       0.492600
     11 C9          -2.6920    15.6190    -0.3670 ca         1 A1A      -0.153800
     12 N2          -1.5020    15.2720     1.7310 nb         1 A1A      -0.208000
     13 N           -0.7900    13.7830    -2.9170 ns         1 A1A      -0.457900
     14 C2          -0.6980    13.3320    -4.2810 c3         1 A1A       0.167000
     15 C1           0.7610    13.0080    -4.6300 c3         1 A1A      -0.222400
     16 C            1.4050    11.9150    -3.7530 c          1 A1A       0.717000
     17 O1           2.0350    11.0150    -4.3290 o          1 A1A      -0.726000
     18 O            1.2580    12.0460    -2.5120 o          1 A1A      -0.726000
     19 C14         -2.0620    11.9140    -5.8480 ca         1 A1A      -0.140000
     20 N4          -3.1300     9.8820    -5.1770 nb         1 A1A      -0.692000
     21 C12         -2.6690    10.0950    -3.9500 ca         1 A1A       0.319400
     22 C11         -1.9000    11.1930    -3.5930 ca         1 A1A      -0.140000
     23 H1          -3.5690    16.9180     2.4410 hn         1 A1A       0.353000
     24 H6           0.1410    14.0540     1.5540 h5         1 A1A       0.052100
     25 H7          -5.1330    17.5980     0.6100 h4         1 A1A       0.207000
     26 H8          -4.3180    16.4660    -1.6770 ha         1 A1A       0.230000
     27 H5          -0.0870    13.3980    -2.2860 hn         1 A1A       0.401500
     28 H           -1.0240    14.1430    -4.9380 h1         1 A1A       0.043700
     29 H3           1.3440    13.9300    -4.5270 hc         1 A1A       0.036700
     30 H4           0.8060    12.7260    -5.6830 hc         1 A1A       0.036700
     31 H12         -1.8510    12.6140    -6.6480 ha         1 A1A       0.127000
     32 H10         -2.9240     9.3520    -3.2020 h4         1 A1A       0.000100
     33 H9          -1.5590    11.2990    -2.5720 ha         1 A1A       0.127000
     34 O2          -2.7510    14.8990    -3.1330 o          1 A1A      -0.644100
     35 H11         -3.2080    10.6050    -7.1010 h4         1 A1A       0.000100
@<TRIPOS>BOND
     1     1     3 ar  
     2     1     4 ar  
     3     2     5 1   
     4     2     6 1   
     5     2    23 1   
     6     3    10 1   
     7     3    11 ar  
     8     4    12 ar  
     9     4    24 1   
    10     5    11 ar  
    11     5    12 ar  
    12     6     7 2   
    13     6    25 1   
    14     7    11 1   
    15     7    26 1   
    16     8    14 1   
    17     8    19 ar  
    18     8    22 ar  
    19     9    19 ar  
    20     9    20 ar  
    21     9    35 1   
    22    10    13 1   
    23    10    34 2   
    24    13    14 1   
    25    13    27 1   
    26    14    15 1   
    27    14    28 1   
    28    15    16 1   
    29    15    29 1   
    30    15    30 1   
    31    16    17 1   
    32    16    18 1   
    33    19    31 1   
    34    20    21 ar  
    35    21    22 ar  
    36    21    32 1   
    37    22    33 1   
@<TRIPOS>SUBSTRUCTURE
     1 A1A         1 TEMP              0 ****  ****    0 ROOT
