@<TRIPOS>MOLECULE
A1A
   37    40     1     0     0
SMALL
abcg2


@<TRIPOS>ATOM
      1 N1           0.9740    12.0080    -6.8640 nb         1 A1A      -0.303000
      2 N3          -0.8220     8.7790    -8.4130 na         1 A1A      -0.327400
      3 C4          -0.1540     9.8930    -8.0290 ca         1 A1A       0.146500
      4 C5          -1.5010     8.2640    -7.3370 cc         1 A1A      -0.223100
      5 C6          -1.2790     9.0460    -6.2410 cd         1 A1A      -0.180200
      6 C7          -0.4150    10.0970    -6.6720 ca         1 A1A      -0.272800
      7 C8          -0.0280    13.9820    -4.5530 ca         1 A1A      -0.019300
      8 C10         -2.0050    15.2760    -5.0430 ca         1 A1A      -0.115000
      9 C13          0.7350    15.1310    -4.7060 ca         1 A1A      -0.080000
     10 C15         -0.9830    18.5880    -6.0160 c6         1 A1A       0.121600
     11 C            0.4660    12.5080    -2.6060 c          1 A1A       0.724000
     12 O1           1.1520    13.2730    -1.9140 o          1 A1A      -0.706500
     13 C1           0.6240    12.6790    -4.1500 c3         1 A1A       0.108800
     14 C2           0.2030    11.2300    -6.0960 ca         1 A1A       0.439900
     15 N2           0.6160    10.6660    -8.8050 nb         1 A1A      -0.281000
     16 C3           1.1310    11.6830    -8.1470 ca         1 A1A       0.180900
     17 C12          0.1450    16.3480    -5.0230 ca         1 A1A       0.045100
     18 O2           0.9430    17.4360    -5.1570 os         1 A1A      -0.335100
     19 C14          0.2490    18.6720    -5.1460 c6         1 A1A       0.122600
     20 O3          -1.8590    17.5870    -5.5260 os         1 A1A      -0.342100
     21 C11         -1.2390    16.4240    -5.1990 ca         1 A1A       0.023100
     22 C9          -1.4080    14.0690    -4.7150 ca         1 A1A      -0.099000
     23 H1          -0.8170     8.3880    -9.3410 hn         1 A1A       0.344000
     24 H5          -2.0950     7.3710    -7.4410 h4         1 A1A       0.200000
     25 H6          -1.6860     8.8840    -5.2560 ha         1 A1A       0.206000
     26 H8          -3.0770    15.3390    -5.1800 ha         1 A1A       0.108000
     27 H9           1.8110    15.0920    -4.5830 ha         1 A1A       0.131000
     28 H12         -1.5280    19.5310    -6.0000 h1         1 A1A       0.050200
     29 H13         -0.7010    18.3710    -7.0530 h1         1 A1A       0.050200
     30 H            1.6910    12.7350    -4.3800 h1         1 A1A       0.071700
     31 H4           1.7690    12.3500    -8.7200 h5         1 A1A       0.027100
     32 H10         -0.0290    18.9390    -4.1200 h1         1 A1A       0.053200
     33 H11          0.9330    19.4310    -5.5240 h1         1 A1A       0.053200
     34 H7          -2.0270    13.1880    -4.6030 ha         1 A1A       0.121000
     35 N            0.0410    11.5400    -4.8070 nu         1 A1A      -0.869100
     36 H3          -0.5140    10.9480    -4.2050 hn         1 A1A       0.531000
     37 O           -0.3470    11.6440    -2.2260 o          1 A1A      -0.706500
@<TRIPOS>BOND
     1     1    14 ar  
     2     1    16 ar  
     3     2     3 1   
     4     2     4 1   
     5     2    23 1   
     6     3     6 ar  
     7     3    15 ar  
     8     4     5 2   
     9     4    24 1   
    10     5     6 1   
    11     5    25 1   
    12     6    14 ar  
    13     7     9 ar  
    14     7    13 1   
    15     7    22 ar  
    16     8    21 ar  
    17     8    22 ar  
    18     8    26 1   
    19     9    17 ar  
    20     9    27 1   
    21    10    19 1   
    22    10    20 1   
    23    10    28 1   
    24    10    29 1   
    25    11    12 1   
    26    11    13 1   
    27    11    37 1   
    28    13    30 1   
    29    13    35 1   
    30    14    35 1   
    31    15    16 ar  
    32    16    31 1   
    33    17    18 1   
    34    17    21 ar  
    35    18    19 1   
    36    19    32 1   
    37    19    33 1   
    38    20    21 1   
    39    22    34 1   
    40    35    36 1   
@<TRIPOS>SUBSTRUCTURE
     1 A1A         1 TEMP              0 ****  ****    0 ROOT
