@<TRIPOS>MOLECULE
A1A
   30    31     1     0     0
SMALL
No Charge or Current Charge


@<TRIPOS>ATOM
      1 N1           0.1220    14.1510     0.1030 nb         1 A1A      -0.268000
      2 N3          -3.5430    15.7450     1.0980 na         1 A1A      -0.328400
      3 C4          -0.7650    14.6130    -0.8020 ca         1 A1A       0.444900
      4 C5          -0.2490    14.2320     1.4040 ca         1 A1A       0.182900
      5 C6          -2.2820    15.1820     0.9680 ca         1 A1A       0.150500
      6 C7          -4.0930    16.0800    -0.1590 cc         1 A1A      -0.225100
      7 C8          -3.1210    15.7000    -1.0670 cd         1 A1A      -0.187200
      8 C10          0.4050    12.1750    -2.6630 c          1 A1A       0.720000
      9 O            1.2000    11.5030    -2.0160 o          1 A1A      -0.718500
     10 O1          -0.5990    11.6970    -3.1820 o          1 A1A      -0.718500
     11 C3           0.6560    13.7360    -2.7750 c3         1 A1A       0.086500
     12 C1           0.9030    14.1990    -4.2490 c3         1 A1A      -0.060700
     13 C2           1.3030    15.6950    -4.3390 c3         1 A1A      -0.079100
     14 C            1.9640    13.3280    -4.9690 c3         1 A1A      -0.079100
     15 N           -0.4390    14.5530    -2.1510 nu         1 A1A      -0.859100
     16 C9          -1.9880    15.1390    -0.3700 ca         1 A1A      -0.271800
     17 N2          -1.4140    14.7270     1.8890 nb         1 A1A      -0.286000
     18 H1          -3.9990    15.8920     1.9930 hn         1 A1A       0.343000
     19 H10          0.4650    13.8600     2.1370 h5         1 A1A       0.029100
     20 H11         -5.0730    16.5340    -0.2940 h4         1 A1A       0.196000
     21 H12         -3.2110    15.8160    -2.1460 ha         1 A1A       0.193000
     22 H            1.5890    13.9270    -2.2270 h1         1 A1A       0.067700
     23 H5          -0.0370    14.0770    -4.8010 hc         1 A1A       0.042700
     24 H6           0.5140    16.3450    -3.9440 hc         1 A1A       0.024533
     25 H7           2.2230    15.8860    -3.7730 hc         1 A1A       0.024533
     26 H8           1.4770    15.9870    -5.3820 hc         1 A1A       0.024533
     27 H3           1.6410    12.2830    -5.0430 hc         1 A1A       0.024533
     28 H4           2.1340    13.6910    -5.9900 hc         1 A1A       0.024533
     29 H2           2.9200    13.3570    -4.4320 hc         1 A1A       0.024533
     30 H9          -1.1940    14.8500    -2.7650 hn         1 A1A       0.479000
@<TRIPOS>BOND
     1     1     3 ar  
     2     1     4 ar  
     3     2     5 1   
     4     2     6 1   
     5     2    18 1   
     6     3    15 1   
     7     3    16 ar  
     8     4    17 ar  
     9     4    19 1   
    10     5    16 ar  
    11     5    17 ar  
    12     6     7 2   
    13     6    20 1   
    14     7    16 1   
    15     7    21 1   
    16     8     9 1   
    17     8    10 1   
    18     8    11 1   
    19    11    12 1   
    20    11    15 1   
    21    11    22 1   
    22    12    13 1   
    23    12    14 1   
    24    12    23 1   
    25    13    24 1   
    26    13    25 1   
    27    13    26 1   
    28    14    27 1   
    29    14    28 1   
    30    14    29 1   
    31    15    30 1   
@<TRIPOS>SUBSTRUCTURE
     1 A1A         1 TEMP              0 ****  ****    0 ROOT
