@<TRIPOS>MOLECULE
A1A
   30    31     1     0     0
SMALL
abcg2


@<TRIPOS>ATOM
      1 N1           0.0060    14.0390    -0.0220 nb         1 A1A      -0.268000
      2 N3          -3.4250    15.7800     1.0940 na         1 A1A      -0.328400
      3 C4          -0.8250    14.5430    -0.9400 ca         1 A1A       0.444900
      4 C5          -0.3300    14.1330     1.2640 ca         1 A1A       0.182900
      5 C6          -2.2380    15.1670     0.8670 ca         1 A1A       0.150500
      6 C7          -3.9790    16.1530    -0.1040 cc         1 A1A      -0.225100
      7 C8          -3.1510    15.7830    -1.1240 cd         1 A1A      -0.187200
      8 C10          0.4610    12.2130    -2.5890 c          1 A1A       0.720000
      9 O            1.4730    11.5500    -2.2920 o          1 A1A      -0.718500
     10 O1          -0.6870    11.7850    -2.8150 o          1 A1A      -0.718500
     11 C3           0.6610    13.7470    -2.7320 c3         1 A1A       0.086500
     12 C1           0.8920    14.1580    -4.1960 c3         1 A1A      -0.060700
     13 C2           1.1900    15.6520    -4.3060 c3         1 A1A      -0.079100
     14 C            2.0160    13.3620    -4.8510 c3         1 A1A      -0.079100
     15 N           -0.4800    14.4890    -2.2320 nu         1 A1A      -0.859100
     16 C9          -2.0290    15.1490    -0.5140 ca         1 A1A      -0.271800
     17 N2          -1.4100    14.6690     1.7930 nb         1 A1A      -0.286000
     18 H1          -3.8350    15.9370     2.0010 hn         1 A1A       0.343000
     19 H10          0.3850    13.7070     1.9620 h5         1 A1A       0.029100
     20 H11         -4.9300    16.6590    -0.1340 h4         1 A1A       0.196000
     21 H12         -3.3310    15.9500    -2.1750 ha         1 A1A       0.193000
     22 H            1.5420    14.0420    -2.1560 h1         1 A1A       0.067700
     23 H5          -0.0330    13.9470    -4.7480 hc         1 A1A       0.042700
     24 H6           0.3920    16.2710    -3.8970 hc         1 A1A       0.024533
     25 H7           2.1100    15.9000    -3.7710 hc         1 A1A       0.024533
     26 H8           1.3270    15.9420    -5.3490 hc         1 A1A       0.024533
     27 H3           1.7880    12.3010    -4.9280 hc         1 A1A       0.024533
     28 H4           2.1950    13.7330    -5.8610 hc         1 A1A       0.024533
     29 H2           2.9480    13.4650    -4.2910 hc         1 A1A       0.024533
     30 H9          -1.1940    14.7350    -2.9000 hn         1 A1A       0.479000
@<TRIPOS>BOND
     1     1     3 ar  
     2     1     4 ar  
     3     2     5 1   
     4     2     6 1   
     5     2    18 1   
     6     3    15 1   
     7     3    16 ar  
     8     4    17 ar  
     9     4    19 1   
    10     5    16 ar  
    11     5    17 ar  
    12     6     7 2   
    13     6    20 1   
    14     7    16 1   
    15     7    21 1   
    16     8     9 1   
    17     8    10 1   
    18     8    11 1   
    19    11    12 1   
    20    11    15 1   
    21    11    22 1   
    22    12    13 1   
    23    12    14 1   
    24    12    23 1   
    25    13    24 1   
    26    13    25 1   
    27    13    26 1   
    28    14    27 1   
    29    14    28 1   
    30    14    29 1   
    31    15    30 1   
@<TRIPOS>SUBSTRUCTURE
     1 A1A         1 TEMP              0 ****  ****    0 ROOT
