@<TRIPOS>MOLECULE
A1A
   33    35     1     0     0
SMALL
abcg2


@<TRIPOS>ATOM
      1 C4          48.9160     1.9780   -22.3570 ca         1 A1A      -0.190000
      2 C5          49.2730     2.5180   -23.5710 ca         1 A1A      -0.020000
      3 C6          50.4640     2.1370   -24.2000 ca         1 A1A      -0.205500
      4 C7          51.2840     1.2010   -23.5750 ca         1 A1A      -0.020000
      5 C8          50.9330     0.6520   -22.3530 ca         1 A1A      -0.190000
      6 N12         51.9930     3.0500   -27.2730 nc         1 A1A      -0.380300
      7 C15         51.4350     4.5780   -29.6160 c5         1 A1A      -0.087400
      8 C1          50.0990    -0.4110   -19.8870 c3         1 A1A       0.146900
      9 C3          49.7430     1.0350   -21.7340 ca         1 A1A       0.173100
     10 C9          50.8030     2.7170   -25.4840 cc         1 A1A       0.562500
     11 N10         50.1230     3.5700   -26.1830 nd         1 A1A      -0.736000
     12 C11         50.8980     3.7470   -27.2910 cd         1 A1A       0.583300
     13 O13         51.9350     2.3690   -26.0820 os         1 A1A      -0.096700
     14 C14         50.5110     4.6670   -28.3990 c5         1 A1A      -0.095000
     15 C16         50.8500     3.4280   -30.4570 c5         1 A1A       0.155800
     16 N17         49.5860     3.0820   -29.8020 n7         1 A1A      -0.871400
     17 C18         49.1790     4.2260   -29.0060 c5         1 A1A       0.160800
     18 H1          47.9930     2.2770   -21.8760 ha         1 A1A       0.128500
     19 H2          48.6230     3.2430   -24.0420 ha         1 A1A       0.134000
     20 H3          52.2110     0.8840   -24.0340 ha         1 A1A       0.134000
     21 H4          51.5960    -0.0730   -21.9010 ha         1 A1A       0.128500
     22 H5          52.4810     4.4250   -29.3550 hc         1 A1A       0.057200
     23 H6          51.3770     5.5180   -30.1650 hc         1 A1A       0.057200
     24 H7          49.5680    -0.6510   -18.9710 h1         1 A1A       0.045033
     25 H8          50.2120    -1.3210   -20.4810 h1         1 A1A       0.045033
     26 H9          51.0900    -0.0270   -19.6320 h1         1 A1A       0.045033
     27 H10         50.4510     5.6800   -27.9930 hc         1 A1A       0.079700
     28 H11         51.5150     2.5610   -30.4760 h1         1 A1A       0.040700
     29 H12         50.7160     3.7520   -31.4940 h1         1 A1A       0.040700
     30 H13         48.8770     2.8120   -30.4680 hn         1 A1A       0.416000
     31 H15         48.7650     5.0610   -29.5910 h1         1 A1A       0.046700
     32 H16         48.4350     3.9480   -28.2580 h1         1 A1A       0.046700
     33 O2          49.3170     0.5600   -20.5590 os         1 A1A      -0.336100
@<TRIPOS>BOND
     1     1     2 ar  
     2     1     9 ar  
     3     1    18 1   
     4     2     3 ar  
     5     2    19 1   
     6     3     4 ar  
     7     3    10 1   
     8     4     5 ar  
     9     4    20 1   
    10     5     9 ar  
    11     5    21 1   
    12     6    12 2   
    13     6    13 1   
    14     7    14 1   
    15     7    15 1   
    16     7    22 1   
    17     7    23 1   
    18     8    24 1   
    19     8    25 1   
    20     8    26 1   
    21     8    33 1   
    22     9    33 1   
    23    10    11 2   
    24    10    13 1   
    25    11    12 1   
    26    12    14 1   
    27    14    17 1   
    28    14    27 1   
    29    15    16 1   
    30    15    28 1   
    31    15    29 1   
    32    16    17 1   
    33    16    30 1   
    34    17    31 1   
    35    17    32 1   
@<TRIPOS>SUBSTRUCTURE
     1 A1A         1 TEMP              0 ****  ****    0 ROOT
