@<TRIPOS>MOLECULE
A1A
   21    22     1     0     0
SMALL
abcg2


@<TRIPOS>ATOM
      1 N1          -9.1940     4.5130    -8.3740 na         1 A1A       0.132800
      2 C4          -9.6070     2.2180    -7.7210 c6         1 A1A       0.133800
      3 C5          -8.9820     2.6600    -9.9930 c6         1 A1A       0.218100
      4 C6          -9.0030     4.1170    -9.6470 cc         1 A1A      -0.186300
      5 C1          -8.8830     5.2650   -10.4060 cd         1 A1A      -0.186300
      6 N           -9.1910     5.8350    -8.2370 nc         1 A1A      -0.519800
      7 C2          -9.0090     6.2980    -9.4630 cd         1 A1A       0.242900
      8 N2          -8.7810     1.8010    -8.8390 n7         1 A1A      -0.848400
      9 C3          -9.2930     3.6300    -7.2320 c6         1 A1A       0.043600
     10 H7          -9.4800     1.5230    -6.8910 h1         1 A1A       0.068200
     11 H6         -10.6540     2.1590    -8.0300 h1         1 A1A       0.068200
     12 H10         -8.2020     2.4630   -10.7310 h1         1 A1A       0.070700
     13 H9          -9.9300     2.3890   -10.4710 h1         1 A1A       0.070700
     14 H1          -7.8780     4.7160   -12.2270 hc         1 A1A       0.036700
     15 H2          -9.5780     5.0990   -12.4400 hc         1 A1A       0.036700
     16 H           -8.4160     6.3880   -12.1650 hc         1 A1A       0.036700
     17 H3          -8.9700     7.3640    -9.6420 h4         1 A1A       0.036100
     18 H11         -7.8050     1.8200    -8.5670 hn         1 A1A       0.415000
     19 H5          -8.3500     3.6430    -6.6800 h1         1 A1A       0.067700
     20 H4         -10.0760     3.9950    -6.5660 h1         1 A1A       0.067700
     21 C           -8.6800     5.3700   -11.8810 c3         1 A1A      -0.005800
@<TRIPOS>BOND
     1     1     4 1   
     2     1     6 1   
     3     1     9 1   
     4     2     8 1   
     5     2     9 1   
     6     2    10 1   
     7     2    11 1   
     8     3     4 1   
     9     3     8 1   
    10     3    12 1   
    11     3    13 1   
    12     4     5 2   
    13     5     7 1   
    14     5    21 1   
    15     6     7 2   
    16     7    17 1   
    17     8    18 1   
    18     9    19 1   
    19     9    20 1   
    20    14    21 1   
    21    15    21 1   
    22    16    21 1   
@<TRIPOS>SUBSTRUCTURE
     1 A1A         1 TEMP              0 ****  ****    0 ROOT
