@<TRIPOS>MOLECULE
A1A
   43    46     1     0     0
SMALL
No Charge or Current Charge


@<TRIPOS>ATOM
      1 N1          -0.4060    10.7380    -3.8920 nc         1 A1A      -0.041000
      2 N3           0.7340    12.1910    -2.8610 na         1 A1A      -0.211700
      3 C4           0.0080    16.4440    -5.1290 ca         1 A1A      -0.148300
      4 C5          -0.3080    15.1520    -4.3780 c3         1 A1A       0.170000
      5 C6           0.7680    14.0680    -4.6070 c3         1 A1A      -0.123700
      6 C7           0.3780    12.7190    -4.0700 cd         1 A1A       0.396800
      7 C10         -0.4790    16.6770     0.9810 ca         1 A1A       0.132900
      8 C13         -3.3610    13.9050     0.2550 cc         1 A1A      -0.188200
      9 C15          1.2190    17.1340    -4.9110 ca         1 A1A      -0.056500
     10 O1          -2.2280    14.0520    -2.5600 o          1 A1A      -0.579100
     11 C9          -1.4080    15.3470    -0.6800 ca         1 A1A       0.105500
     12 C14         -2.2970    14.8660     0.3120 ca         1 A1A      -0.137800
     13 C12         -3.8990    13.8200     1.5280 cd         1 A1A      -0.154100
     14 N7          -3.1920    14.7080     2.3750 na         1 A1A      -0.322400
     15 C11         -2.2200    15.3310     1.6050 ca         1 A1A       0.115500
     16 N6          -1.3050    16.2500     1.9630 nb         1 A1A      -0.175000
     17 N5          -0.4830    16.2750    -0.3140 nb         1 A1A      -0.225000
     18 N4          -0.4810    15.4450    -2.9560 ns         1 A1A      -0.499900
     19 N2           0.2230    10.9350    -2.7630 nd         1 A1A      -0.203800
     20 N           -0.3210    11.8230    -4.7340 nc         1 A1A      -0.379000
     21 C3          -0.9250    16.9680    -6.0460 ca         1 A1A      -0.056500
     22 C2          -0.6510    18.1580    -6.7420 ca         1 A1A      -0.172000
     23 C16          1.4910    18.3240    -5.6070 ca         1 A1A      -0.172000
     24 C1           0.5640    18.8420    -6.5240 ca         1 A1A       0.153100
     25 O            0.8880    20.0140    -7.1760 os         1 A1A      -0.339100
     26 C            0.0070    20.6270    -8.1340 c3         1 A1A       0.146900
     27 H1           1.2870    12.6250    -2.1320 hn         1 A1A       0.384000
     28 H           -1.2590    14.7600    -4.7700 h1         1 A1A       0.096700
     29 H9           0.9550    13.9830    -5.6830 hc         1 A1A       0.075700
     30 H8           1.7150    14.3840    -4.1560 hc         1 A1A       0.075700
     31 H13         -3.7020    13.3360    -0.6090 ha         1 A1A       0.237000
     32 H14          1.9510    16.7550    -4.2010 ha         1 A1A       0.114500
     33 H12         -4.7210    13.2030     1.8890 h4         1 A1A       0.223000
     34 H2          -3.3580    14.8660     3.3650 hn         1 A1A       0.367000
     35 H10          0.1190    16.1450    -2.5350 hn         1 A1A       0.342500
     36 H7          -1.8670    16.4530    -6.2230 ha         1 A1A       0.114500
     37 H6          -1.3910    18.5330    -7.4430 ha         1 A1A       0.126000
     38 H15          2.4270    18.8490    -5.4340 ha         1 A1A       0.126000
     39 H5           0.4570    21.5460    -8.5310 h1         1 A1A       0.043033
     40 H4          -0.1850    19.9510    -8.9770 h1         1 A1A       0.043033
     41 H3          -0.9510    20.8930    -7.6690 h1         1 A1A       0.043033
     42 C8          -1.4320    14.8760    -2.1300 c          1 A1A       0.499600
     43 H11          0.2660    17.4200     1.2590 h5         1 A1A       0.052100
@<TRIPOS>BOND
     1     1    19 2   
     2     1    20 1   
     3     2     6 1   
     4     2    19 1   
     5     2    27 1   
     6     3     4 1   
     7     3     9 ar  
     8     3    21 ar  
     9     4     5 1   
    10     4    18 1   
    11     4    28 1   
    12     5     6 1   
    13     5    29 1   
    14     5    30 1   
    15     6    20 2   
    16     7    16 ar  
    17     7    17 ar  
    18     7    43 1   
    19     8    12 1   
    20     8    13 2   
    21     8    31 1   
    22     9    23 ar  
    23     9    32 1   
    24    10    42 2   
    25    11    12 ar  
    26    11    17 ar  
    27    11    42 1   
    28    12    15 ar  
    29    13    14 1   
    30    13    33 1   
    31    14    15 1   
    32    14    34 1   
    33    15    16 ar  
    34    18    35 1   
    35    18    42 1   
    36    21    22 ar  
    37    21    36 1   
    38    22    24 ar  
    39    22    37 1   
    40    23    24 ar  
    41    23    38 1   
    42    24    25 1   
    43    25    26 1   
    44    26    39 1   
    45    26    40 1   
    46    26    41 1   
@<TRIPOS>SUBSTRUCTURE
     1 A1A         1 TEMP              0 ****  ****    0 ROOT
