@<TRIPOS>MOLECULE
A1A
   47    50     1     0     0
SMALL
abcg2


@<TRIPOS>ATOM
      1 N1          -3.8570    14.6030    -1.8460 ns         1 A1A      -0.379100
      2 N3          -8.2210    15.6490     5.5740 ns         1 A1A      -0.507900
      3 C4          -5.1910    14.5300    -1.6470 c          1 A1A       0.608700
      4 C5          -5.6350    14.8220    -0.2560 ca         1 A1A      -0.157600
      5 C6          -6.9010    14.3980     0.1400 ca         1 A1A      -0.039500
      6 C7          -7.3770    14.6070     1.4220 ca         1 A1A      -0.171500
      7 C8          -6.5850    15.2760     2.3600 ca         1 A1A      -0.004000
      8 C10         -9.4430    15.6700     6.3040 cx         1 A1A       0.063700
      9 C13         -5.3190    15.7230     1.9610 ca         1 A1A      -0.171500
     10 C15         -3.5310    14.4920    -4.3820 ca         1 A1A      -0.125800
     11 C17         -4.5050    15.0620    -6.4770 ca         1 A1A      -0.232000
     12 O3          -9.2050    15.1140     3.6070 o          1 A1A      -0.615100
     13 C9          -8.2040    15.4030     4.2410 c          1 A1A       0.662100
     14 C12        -10.1360    14.3780     6.5990 cx         1 A1A      -0.134400
     15 C11         -9.4250    15.1120     7.6920 cx         1 A1A      -0.134400
     16 N2          -6.9490    15.5030     3.6790 ns         1 A1A      -0.163000
     17 C14         -4.8540    15.4990     0.6810 ca         1 A1A      -0.039500
     18 O2          -5.9940    14.2350    -2.5230 o          1 A1A      -0.635100
     19 C3          -3.1730    14.2880    -3.0180 cc         1 A1A      -0.007600
     20 C1          -1.9010    13.7520    -2.9950 cd         1 A1A      -0.138300
     21 C2          -1.1020    13.4150    -1.7640 c          1 A1A       0.739200
     22 O1          -1.5900    13.8320    -0.6840 o          1 A1A      -0.708500
     23 O           -0.0560    12.7670    -1.9030 o          1 A1A      -0.708500
     24 C19         -2.4220    14.0390    -5.1390 ca         1 A1A       0.348500
     25 N           -1.4550    13.5960    -4.2950 na         1 A1A      -0.157400
     26 C           -0.1700    13.1050    -4.7430 c3         1 A1A       0.083900
     27 N4          -2.3240    14.0550    -6.4610 nb         1 A1A      -0.704000
     28 C18         -3.3600    14.5600    -7.1070 ca         1 A1A       0.332900
     29 C16         -4.6020    15.0310    -5.0990 ca         1 A1A      -0.008000
     30 H4          -3.2170    14.5310    -1.0490 hn         1 A1A       0.380500
     31 H8          -7.3950    15.9950     6.0370 hn         1 A1A       0.312500
     32 H5          -7.5310    13.8750    -0.5670 ha         1 A1A       0.134500
     33 H6          -8.3550    14.2390     1.6850 ha         1 A1A       0.120500
     34 H9         -10.0780    16.5360     6.1360 h1         1 A1A       0.079700
     35 H14         -4.6950    16.2600     2.6650 ha         1 A1A       0.120500
     36 H17         -5.3070    15.4680    -7.0770 ha         1 A1A       0.100000
     37 H13         -9.6820    13.4710     6.2250 hc         1 A1A       0.076700
     38 H12        -11.2180    14.3760     6.5910 hc         1 A1A       0.076700
     39 H11         -8.4920    14.6980     8.0520 hc         1 A1A       0.076700
     40 H10        -10.0100    15.6230     8.4450 hc         1 A1A       0.076700
     41 H7          -6.2050    15.8450     4.2700 hn         1 A1A       0.141000
     42 H15         -3.8770    15.8870     0.4230 ha         1 A1A       0.134500
     43 H1          -0.1460    13.1830    -5.8260 h1         1 A1A       0.049700
     44 H2           0.6430    13.6980    -4.3320 h1         1 A1A       0.049700
     45 H           -0.0230    12.0660    -4.4610 h1         1 A1A       0.049700
     46 H18         -3.2910    14.5780    -8.1890 h4         1 A1A      -0.006900
     47 H16         -5.4790    15.4130    -4.5990 ha         1 A1A       0.129000
@<TRIPOS>BOND
     1     1     3 1   
     2     1    19 1   
     3     1    30 1   
     4     2     8 1   
     5     2    13 1   
     6     2    31 1   
     7     3     4 1   
     8     3    18 2   
     9     4     5 ar  
    10     4    17 ar  
    11     5     6 ar  
    12     5    32 1   
    13     6     7 ar  
    14     6    33 1   
    15     7     9 ar  
    16     7    16 1   
    17     8    14 1   
    18     8    15 1   
    19     8    34 1   
    20     9    17 ar  
    21     9    35 1   
    22    10    19 1   
    23    10    24 ar  
    24    10    29 ar  
    25    11    28 ar  
    26    11    29 ar  
    27    11    36 1   
    28    12    13 2   
    29    13    16 1   
    30    14    15 1   
    31    14    37 1   
    32    14    38 1   
    33    15    39 1   
    34    15    40 1   
    35    16    41 1   
    36    17    42 1   
    37    19    20 2   
    38    20    21 1   
    39    20    25 1   
    40    21    22 1   
    41    21    23 1   
    42    24    25 1   
    43    24    27 ar  
    44    25    26 1   
    45    26    43 1   
    46    26    44 1   
    47    26    45 1   
    48    27    28 ar  
    49    28    46 1   
    50    29    47 1   
@<TRIPOS>SUBSTRUCTURE
     1 A1A         1 TEMP              0 ****  ****    0 ROOT
