@<TRIPOS>MOLECULE
A1A
   51    54     1     0     0
SMALL
abcg2


@<TRIPOS>ATOM
      1 N1          -1.1660    14.2130    -2.3610 nu         1 A1A      -0.914100
      2 N3          -1.7110    16.3630     1.1300 nb         1 A1A      -0.239000
      3 C4          -2.6400    14.9200    -0.5990 ca         1 A1A      -0.280800
      4 C5          -1.3770    14.9040    -1.2320 ca         1 A1A       0.443900
      5 C6           0.0750    14.2310    -3.1020 c3         1 A1A       0.293800
      6 C7           0.2530    15.4920    -3.9240 ca         1 A1A      -0.091300
      7 C8           1.5310    15.8670    -4.3300 ca         1 A1A      -0.103000
      8 C10          0.6430    17.7670    -5.5140 ca         1 A1A       0.055100
      9 C13         -1.4340    19.4360    -5.9290 c6         1 A1A       0.117600
     10 C15          0.1980    12.9600    -3.9670 c3         1 A1A      -0.071700
     11 C17          0.1820    11.7010    -3.1050 c3         1 A1A      -0.090100
     12 O           -6.7880    13.9790    -0.5510 o          1 A1A      -0.590100
     13 N           -6.6680    14.6160     1.6090 ns         1 A1A      -0.507900
     14 C           -8.0430    14.2840     1.9030 c3         1 A1A       0.093300
     15 C2          -4.7230    14.7890     0.2020 cc         1 A1A      -0.169300
     16 N4          -3.9750    15.5740     1.0560 na         1 A1A      -0.311400
     17 C19         -2.7130    15.6700     0.5800 ca         1 A1A       0.162500
     18 C3          -3.9270    14.3710    -0.8310 cd         1 A1A      -0.121200
     19 C18         -0.5940    16.2640     0.4410 ca         1 A1A       0.190900
     20 N2          -0.3710    15.5880    -0.6870 nb         1 A1A      -0.295000
     21 C16         -0.8410    12.8770    -5.0800 c3         1 A1A      -0.090100
     22 C12         -0.8240    16.2780    -4.3090 ca         1 A1A      -0.097000
     23 C11         -0.6410    17.4100    -5.0940 ca         1 A1A       0.059100
     24 O1          -1.7310    18.1430    -5.4280 os         1 A1A      -0.330100
     25 C14         -0.2960    19.3660    -6.9190 c6         1 A1A       0.117600
     26 O2           0.8680    18.8560    -6.2900 os         1 A1A      -0.329100
     27 C9           1.7240    16.9880    -5.1220 ca         1 A1A      -0.105000
     28 H7          -1.9630    13.7640    -2.7840 hn         1 A1A       0.500000
     29 H            0.8900    14.1950    -2.3730 h1         1 A1A       0.086700
     30 H8           2.3890    15.2770    -4.0290 ha         1 A1A       0.116000
     31 H12         -2.3360    19.8110    -6.4110 h1         1 A1A       0.067200
     32 H11         -1.1790    20.1110    -5.1040 h1         1 A1A       0.067200
     33 H15          1.1840    13.0290    -4.4380 hc         1 A1A       0.058700
     34 H20          0.4140    10.8240    -3.7090 hc         1 A1A       0.037367
     35 H21          0.9200    11.7580    -2.3030 hc         1 A1A       0.037367
     36 H19         -0.7950    11.5350    -2.6490 hc         1 A1A       0.037367
     37 H5          -6.0720    14.8310     2.3900 hn         1 A1A       0.312500
     38 H3          -8.2600    14.5960     2.9210 h1         1 A1A       0.042367
     39 H4          -8.7260    14.8050     1.2320 h1         1 A1A       0.042367
     40 H2          -8.2340    13.2130     1.8220 h1         1 A1A       0.042367
     41 H1          -4.3130    16.0960     1.8510 hn         1 A1A       0.360000
     42 H6          -4.2390    13.7300    -1.6400 ha         1 A1A       0.217000
     43 H22          0.2620    16.8020     0.8350 h5         1 A1A       0.045100
     44 H17         -0.6530    12.0020    -5.7040 hc         1 A1A       0.037367
     45 H16         -1.8580    12.7740    -4.6940 hc         1 A1A       0.037367
     46 H18         -0.8160    13.7550    -5.7260 hc         1 A1A       0.037367
     47 H10         -1.8320    16.0280    -4.0000 ha         1 A1A       0.127000
     48 H14         -0.5720    18.7360    -7.7720 h1         1 A1A       0.065700
     49 H13         -0.0530    20.3600    -7.2910 h1         1 A1A       0.065700
     50 H9           2.7200    17.2720    -5.4390 ha         1 A1A       0.128000
     51 C1          -6.1430    14.4300     0.3870 c          1 A1A       0.634300
@<TRIPOS>BOND
     1     1     4 1   
     2     1     5 1   
     3     1    28 1   
     4     2    17 ar  
     5     2    19 ar  
     6     3     4 ar  
     7     3    17 ar  
     8     3    18 1   
     9     4    20 ar  
    10     5     6 1   
    11     5    10 1   
    12     5    29 1   
    13     6     7 ar  
    14     6    22 ar  
    15     7    27 ar  
    16     7    30 1   
    17     8    23 ar  
    18     8    26 1   
    19     8    27 ar  
    20     9    24 1   
    21     9    25 1   
    22     9    31 1   
    23     9    32 1   
    24    10    11 1   
    25    10    21 1   
    26    10    33 1   
    27    11    34 1   
    28    11    35 1   
    29    11    36 1   
    30    12    51 2   
    31    13    14 1   
    32    13    37 1   
    33    13    51 1   
    34    14    38 1   
    35    14    39 1   
    36    14    40 1   
    37    15    16 1   
    38    15    18 2   
    39    15    51 1   
    40    16    17 1   
    41    16    41 1   
    42    18    42 1   
    43    19    20 ar  
    44    19    43 1   
    45    21    44 1   
    46    21    45 1   
    47    21    46 1   
    48    22    23 ar  
    49    22    47 1   
    50    23    24 1   
    51    25    26 1   
    52    25    48 1   
    53    25    49 1   
    54    27    50 1   
@<TRIPOS>SUBSTRUCTURE
     1 A1A         1 TEMP              0 ****  ****    0 ROOT
