@<TRIPOS>MOLECULE
A1A
   51    54     1     0     0
SMALL
No Charge or Current Charge


@<TRIPOS>ATOM
      1 N1          -0.9800    14.0720    -2.2080 nu         1 A1A      -0.914100
      2 N3          -1.5550    16.5710     1.0610 nb         1 A1A      -0.239000
      3 C4          -2.4060    14.9750    -0.4640 ca         1 A1A      -0.280800
      4 C5          -1.1720    14.9020    -1.1160 ca         1 A1A       0.443900
      5 C6           0.1660    14.0650    -3.1330 c3         1 A1A       0.293800
      6 C7           0.2820    15.3880    -3.9060 ca         1 A1A      -0.091300
      7 C8           1.5630    15.8980    -4.2100 ca         1 A1A      -0.103000
      8 C10          0.5680    17.8150    -5.3320 ca         1 A1A       0.055100
      9 C13         -1.6790    19.3960    -5.8040 c6         1 A1A       0.117600
     10 C15          0.1160    12.8250    -4.0780 c3         1 A1A      -0.071700
     11 C17          0.2680    11.4910    -3.3050 c3         1 A1A      -0.090100
     12 O           -6.4800    13.4420    -0.4590 o          1 A1A      -0.590100
     13 N           -6.7480    14.8270     1.3270 ns         1 A1A      -0.507900
     14 C           -8.1540    14.5170     1.5920 c3         1 A1A       0.093300
     15 C2          -4.6000    14.7470     0.2580 cc         1 A1A      -0.169300
     16 N4          -3.8760    15.6800     1.0500 na         1 A1A      -0.311400
     17 C19         -2.5680    15.8090     0.6110 ca         1 A1A       0.162500
     18 C3          -3.6730    14.3170    -0.6800 cd         1 A1A      -0.121200
     19 C18         -0.3860    16.4520     0.3850 ca         1 A1A       0.190900
     20 N2          -0.1410    15.6540    -0.6830 nb         1 A1A      -0.295000
     21 C16         -1.1140    12.7910    -5.0230 c3         1 A1A      -0.090100
     22 C12         -0.8600    16.1140    -4.3170 ca         1 A1A      -0.097000
     23 C11         -0.7220    17.3240    -5.0140 ca         1 A1A       0.059100
     24 O1          -1.8530    18.0240    -5.3860 os         1 A1A      -0.330100
     25 C14         -0.4420    19.5120    -6.7210 c6         1 A1A       0.117600
     26 O2           0.7230    18.9880    -6.0450 os         1 A1A      -0.329100
     27 C9           1.7050    17.1050    -4.9180 ca         1 A1A      -0.105000
     28 H7          -1.7820    13.5080    -2.4670 hn         1 A1A       0.500000
     29 H            1.0830    13.9630    -2.5350 h1         1 A1A       0.086700
     30 H8           2.4530    15.3550    -3.9010 ha         1 A1A       0.116000
     31 H12         -2.5830    19.7370    -6.3270 h1         1 A1A       0.067200
     32 H11         -1.5360    20.0260    -4.9150 h1         1 A1A       0.067200
     33 H15          0.9990    12.9020    -4.7250 hc         1 A1A       0.058700
     34 H20          0.3580    10.6490    -4.0020 hc         1 A1A       0.037367
     35 H21          1.1680    11.5060    -2.6780 hc         1 A1A       0.037367
     36 H19         -0.5980    11.3050    -2.6580 hc         1 A1A       0.037367
     37 H5          -6.2780    15.4980     1.9210 hn         1 A1A       0.312500
     38 H3          -8.5040    15.1020     2.4530 h1         1 A1A       0.042367
     39 H4          -8.7610    14.7700     0.7130 h1         1 A1A       0.042367
     40 H2          -8.2620    13.4470     1.8140 h1         1 A1A       0.042367
     41 H1          -4.2460    16.1970     1.8400 hn         1 A1A       0.360000
     42 H6          -3.8880    13.5890    -1.4600 ha         1 A1A       0.217000
     43 H22          0.4450    17.0620     0.7380 h5         1 A1A       0.045100
     44 H17         -1.0640    11.9180    -5.6850 hc         1 A1A       0.037367
     45 H16         -2.0520    12.7320    -4.4580 hc         1 A1A       0.037367
     46 H18         -1.1480    13.6830    -5.6590 hc         1 A1A       0.037367
     47 H10         -1.8570    15.7470    -4.0900 ha         1 A1A       0.127000
     48 H14         -0.6110    18.9340    -7.6400 h1         1 A1A       0.065700
     49 H13         -0.2610    20.5600    -7.0000 h1         1 A1A       0.065700
     50 H9           2.6970    17.4840    -5.1550 ha         1 A1A       0.128000
     51 C1          -6.0070    14.2640     0.3140 c          1 A1A       0.634300
@<TRIPOS>BOND
     1     1     4 1   
     2     1     5 1   
     3     1    28 1   
     4     2    17 ar  
     5     2    19 ar  
     6     3     4 ar  
     7     3    17 ar  
     8     3    18 1   
     9     4    20 ar  
    10     5     6 1   
    11     5    10 1   
    12     5    29 1   
    13     6     7 ar  
    14     6    22 ar  
    15     7    27 ar  
    16     7    30 1   
    17     8    23 ar  
    18     8    26 1   
    19     8    27 ar  
    20     9    24 1   
    21     9    25 1   
    22     9    31 1   
    23     9    32 1   
    24    10    11 1   
    25    10    21 1   
    26    10    33 1   
    27    11    34 1   
    28    11    35 1   
    29    11    36 1   
    30    12    51 2   
    31    13    14 1   
    32    13    37 1   
    33    13    51 1   
    34    14    38 1   
    35    14    39 1   
    36    14    40 1   
    37    15    16 1   
    38    15    18 2   
    39    15    51 1   
    40    16    17 1   
    41    16    41 1   
    42    18    42 1   
    43    19    20 ar  
    44    19    43 1   
    45    21    44 1   
    46    21    45 1   
    47    21    46 1   
    48    22    23 ar  
    49    22    47 1   
    50    23    24 1   
    51    25    26 1   
    52    25    48 1   
    53    25    49 1   
    54    27    50 1   
@<TRIPOS>SUBSTRUCTURE
     1 A1A         1 TEMP              0 ****  ****    0 ROOT
