@<TRIPOS>MOLECULE
A1A
   33    35     1     0     0
SMALL
No Charge or Current Charge


@<TRIPOS>ATOM
      1 C4          48.9380     2.0150   -22.2510 ca         1 A1A      -0.190000
      2 C5          49.2650     2.5370   -23.5140 ca         1 A1A      -0.020000
      3 C6          50.4160     2.0880   -24.1970 ca         1 A1A      -0.205500
      4 C7          51.2300     1.1060   -23.5890 ca         1 A1A      -0.020000
      5 C8          50.8990     0.5860   -22.3250 ca         1 A1A      -0.190000
      6 N12         51.9250     2.9270   -27.3670 nc         1 A1A      -0.380300
      7 C15         51.4330     4.7030   -29.6440 c5         1 A1A      -0.087400
      8 C1          50.1360    -0.4320   -19.7090 c3         1 A1A       0.146900
      9 C3          49.7480     1.0410   -21.6510 ca         1 A1A       0.173100
     10 C9          50.7560     2.6360   -25.5160 cc         1 A1A       0.562500
     11 N10         50.0890     3.5530   -26.1830 nd         1 A1A      -0.736000
     12 C11         50.8330     3.6840   -27.3370 cd         1 A1A       0.583300
     13 O13         51.8770     2.2050   -26.1560 os         1 A1A      -0.096700
     14 C14         50.4620     4.6930   -28.4190 c5         1 A1A      -0.095000
     15 C16         50.9490     3.4970   -30.5070 c5         1 A1A       0.155800
     16 N17         49.6220     3.1070   -29.9620 n7         1 A1A      -0.871400
     17 C18         49.1650     4.2400   -29.1270 c5         1 A1A       0.160800
     18 H1          48.0500     2.3680   -21.7350 ha         1 A1A       0.128500
     19 H2          48.6190     3.2930   -23.9590 ha         1 A1A       0.134000
     20 H3          52.1250     0.7390   -24.0900 ha         1 A1A       0.134000
     21 H4          51.5480    -0.1670   -21.8880 ha         1 A1A       0.128500
     22 H5          52.4920     4.6330   -29.3700 hc         1 A1A       0.057200
     23 H6          51.3230     5.6350   -30.2100 hc         1 A1A       0.057200
     24 H7          49.6640    -0.6640   -18.7460 h1         1 A1A       0.045033
     25 H8          50.1920    -1.3610   -20.2910 h1         1 A1A       0.045033
     26 H9          51.1560    -0.0780   -19.5110 h1         1 A1A       0.045033
     27 H10         50.3520     5.6930   -27.9850 hc         1 A1A       0.079700
     28 H11         51.6480     2.6510   -30.4460 h1         1 A1A       0.040700
     29 H12         50.8720     3.7870   -31.5640 h1         1 A1A       0.040700
     30 H13         48.9540     2.9180   -30.7220 hn         1 A1A       0.416000
     31 H15         48.7680     5.0490   -29.7590 h1         1 A1A       0.046700
     32 H16         48.3730     3.9440   -28.4240 h1         1 A1A       0.046700
     33 O2          49.3740     0.5670   -20.4100 os         1 A1A      -0.336100
@<TRIPOS>BOND
     1     1     2 ar  
     2     1     9 ar  
     3     1    18 1   
     4     2     3 ar  
     5     2    19 1   
     6     3     4 ar  
     7     3    10 1   
     8     4     5 ar  
     9     4    20 1   
    10     5     9 ar  
    11     5    21 1   
    12     6    12 2   
    13     6    13 1   
    14     7    14 1   
    15     7    15 1   
    16     7    22 1   
    17     7    23 1   
    18     8    24 1   
    19     8    25 1   
    20     8    26 1   
    21     8    33 1   
    22     9    33 1   
    23    10    11 2   
    24    10    13 1   
    25    11    12 1   
    26    12    14 1   
    27    14    17 1   
    28    14    27 1   
    29    15    16 1   
    30    15    28 1   
    31    15    29 1   
    32    16    17 1   
    33    16    30 1   
    34    17    31 1   
    35    17    32 1   
@<TRIPOS>SUBSTRUCTURE
     1 A1A         1 TEMP              0 ****  ****    0 ROOT
