@<TRIPOS>MOLECULE
A1A
   41    42     1     0     0
SMALL
abcg2


@<TRIPOS>ATOM
      1 N1          -0.7330    13.6800    -3.6920 ns         1 A1A      -0.463900
      2 C4          -4.0310    15.0850    -2.9240 ca         1 A1A      -0.071000
      3 C5          -2.7630    14.5400    -2.7690 ca         1 A1A       0.244500
      4 C6          -1.9470    14.1720    -3.9620 c          1 A1A       0.501600
      5 C7           0.1390    13.1680    -4.7200 c3         1 A1A       0.170000
      6 C8           1.5680    13.0270    -4.1800 c3         1 A1A      -0.219400
      7 C10         -0.3630    11.8630    -5.3030 ca         1 A1A      -0.046300
      8 C13         -1.2320     9.4640    -6.4160 ca         1 A1A      -0.022900
      9 C15         -0.2640    11.6330    -6.6710 ca         1 A1A      -0.087500
     10 BR          -1.8480     7.8450    -7.1730 br         1 A1A      -0.154100
     11 C12         -1.3390     9.6640    -5.0470 ca         1 A1A      -0.096000
     12 C11         -0.9020    10.8620    -4.5010 ca         1 A1A      -0.087500
     13 C14         -0.6920    10.4410    -7.2380 ca         1 A1A      -0.096000
     14 C9           1.7210    12.1240    -2.9400 c          1 A1A       0.715000
     15 O2           0.9540    12.3730    -1.9750 o          1 A1A      -0.728500
     16 O1           2.6000    11.2490    -2.9710 o          1 A1A      -0.728500
     17 O           -2.3810    14.3250    -5.1010 o          1 A1A      -0.659100
     18 C3          -4.7780    15.4060    -1.8100 ca         1 A1A      -0.188000
     19 N2          -2.2520    14.3200    -1.5600 nb         1 A1A      -0.596000
     20 C16         -2.9490    14.6210    -0.4860 ca         1 A1A       0.263900
     21 C2          -4.2480    15.1840    -0.5260 ca         1 A1A       0.285000
     22 N           -4.9310    15.4850     0.6060 nh         1 A1A      -0.832400
     23 C1          -4.3790    15.1470     1.8980 c3         1 A1A       0.224600
     24 C           -6.2780    15.9980     0.5130 c3         1 A1A       0.224600
     25 H9          -0.4530    13.4720    -2.7360 hn         1 A1A       0.395500
     26 H            0.1750    13.8940    -5.5370 h1         1 A1A       0.039700
     27 H11          2.2000    12.6660    -4.9920 hc         1 A1A       0.036200
     28 H10          1.9280    14.0300    -3.9240 hc         1 A1A       0.036200
     29 H16          0.1480    12.4000    -7.3160 ha         1 A1A       0.127500
     30 H14         -1.7590     8.9020    -4.4050 ha         1 A1A       0.113500
     31 H13         -0.9910    11.0110    -3.4330 ha         1 A1A       0.127500
     32 H15         -0.6110    10.2910    -8.3070 ha         1 A1A       0.113500
     33 H7          -5.7660    15.8240    -1.9420 ha         1 A1A       0.107000
     34 H17         -2.4690    14.4110     0.4620 h4         1 A1A       0.020100
     35 H5          -3.4220    15.6430     2.0750 h1         1 A1A       0.033033
     36 H6          -5.0640    15.4730     2.6750 h1         1 A1A       0.033033
     37 H4          -4.2270    14.0700     2.0150 h1         1 A1A       0.033033
     38 H3          -6.3160    16.9300    -0.0570 h1         1 A1A       0.033033
     39 H1          -6.9640    15.2870     0.0430 h1         1 A1A       0.033033
     40 H2          -6.6510    16.2100     1.5110 h1         1 A1A       0.033033
     41 H8          -4.4370    15.2530    -3.9120 ha         1 A1A       0.136000
@<TRIPOS>BOND
     1     1     4 1   
     2     1     5 1   
     3     1    25 1   
     4     2     3 ar  
     5     2    18 ar  
     6     2    41 1   
     7     3     4 1   
     8     3    19 ar  
     9     4    17 2   
    10     5     6 1   
    11     5     7 1   
    12     5    26 1   
    13     6    14 1   
    14     6    27 1   
    15     6    28 1   
    16     7     9 ar  
    17     7    12 ar  
    18     8    10 1   
    19     8    11 ar  
    20     8    13 ar  
    21     9    13 ar  
    22     9    29 1   
    23    11    12 ar  
    24    11    30 1   
    25    12    31 1   
    26    13    32 1   
    27    14    15 1   
    28    14    16 1   
    29    18    21 ar  
    30    18    33 1   
    31    19    20 ar  
    32    20    21 ar  
    33    20    34 1   
    34    21    22 1   
    35    22    23 1   
    36    22    24 1   
    37    23    35 1   
    38    23    36 1   
    39    23    37 1   
    40    24    38 1   
    41    24    39 1   
    42    24    40 1   
@<TRIPOS>SUBSTRUCTURE
     1 A1A         1 TEMP              0 ****  ****    0 ROOT
