@<TRIPOS>MOLECULE
A1A
   36    38     1     0     0
SMALL
No Charge or Current Charge


@<TRIPOS>ATOM
      1 N1          -0.9940    13.7740    -2.4510 nh         1 A1A      -0.777300
      2 N3          -0.8650    15.7200     1.2980 nb         1 A1A      -0.231000
      3 C4           0.0170    11.6270    -3.5450 c          1 A1A       0.560000
      4 C5          -2.1040    12.5600    -4.4610 c6         1 A1A       0.096000
      5 C6          -2.2600    13.4750    -3.2050 c6         1 A1A       0.211800
      6 C7          -1.0170    14.4480    -1.1880 ca         1 A1A       0.442900
      7 C8           0.1620    15.0750     0.7070 ca         1 A1A       0.183900
      8 C10         -4.1950    16.0770    -0.0760 cc         1 A1A      -0.180100
      9 O            0.7630    10.6800    -3.3430 o          1 A1A      -0.548000
     10 N           -1.1510    11.4630    -4.2460 ns         1 A1A      -0.510900
     11 C3           0.2590    13.0650    -2.9660 c6         1 A1A       0.152500
     12 C1           1.0220    13.9650    -4.0150 c3         1 A1A      -0.060700
     13 C2           2.2790    13.2840    -4.6170 c3         1 A1A      -0.089100
     14 C            1.4110    15.3600    -3.4620 c3         1 A1A      -0.089100
     15 C12         -2.1360    15.1130    -0.6190 ca         1 A1A      -0.248800
     16 C11         -3.5120    15.3480    -1.0300 cd         1 A1A      -0.209200
     17 N4          -3.2380    16.2980     0.9330 na         1 A1A      -0.315400
     18 C9          -2.0180    15.7280     0.6100 ca         1 A1A       0.144500
     19 N2           0.1410    14.4450    -0.4890 nb         1 A1A      -0.303000
     20 H10         -1.7440    13.1630    -5.3060 h1         1 A1A       0.052700
     21 H11         -3.0810    12.1440    -4.7420 h1         1 A1A       0.052700
     22 H12         -2.7170    14.4130    -3.5500 h1         1 A1A       0.055200
     23 H13         -2.9710    12.9820    -2.5260 h1         1 A1A       0.055200
     24 H14          1.1050    15.0590     1.2510 h5         1 A1A       0.046100
     25 H15         -5.2210    16.4370    -0.0330 h4         1 A1A       0.217000
     26 H9          -1.3530    10.5380    -4.6070 hn         1 A1A       0.324500
     27 H8           0.9640    12.8660    -2.1470 h1         1 A1A       0.126700
     28 H4           0.3450    14.1500    -4.8570 hc         1 A1A       0.039700
     29 H6           2.0130    12.3850    -5.1850 hc         1 A1A       0.040533
     30 H7           2.7940    13.9610    -5.3090 hc         1 A1A       0.040533
     31 H5           2.9850    13.0010    -3.8280 hc         1 A1A       0.040533
     32 H1           0.5240    15.9270    -3.1570 hc         1 A1A       0.040533
     33 H2           2.0760    15.2660    -2.5960 hc         1 A1A       0.040533
     34 H3           1.9280    15.9520    -4.2260 hc         1 A1A       0.040533
     35 H16         -3.9830    15.0180    -1.9500 ha         1 A1A       0.199000
     36 H           -3.4070    16.8090     1.7940 hn         1 A1A       0.363000
@<TRIPOS>BOND
     1     1     5 1   
     2     1     6 1   
     3     1    11 1   
     4     2     7 ar  
     5     2    18 ar  
     6     3     9 2   
     7     3    10 1   
     8     3    11 1   
     9     4     5 1   
    10     4    10 1   
    11     4    20 1   
    12     4    21 1   
    13     5    22 1   
    14     5    23 1   
    15     6    15 ar  
    16     6    19 ar  
    17     7    19 ar  
    18     7    24 1   
    19     8    16 2   
    20     8    17 1   
    21     8    25 1   
    22    10    26 1   
    23    11    12 1   
    24    11    27 1   
    25    12    13 1   
    26    12    14 1   
    27    12    28 1   
    28    13    29 1   
    29    13    30 1   
    30    13    31 1   
    31    14    32 1   
    32    14    33 1   
    33    14    34 1   
    34    15    16 1   
    35    15    18 ar  
    36    16    35 1   
    37    17    18 1   
    38    17    36 1   
@<TRIPOS>SUBSTRUCTURE
     1 A1A         1 TEMP              0 ****  ****    0 ROOT
