@<TRIPOS>MOLECULE
A1A
   31    33     1     0     0
SMALL
No Charge or Current Charge


@<TRIPOS>ATOM
      1 N1           1.1230    12.0920    -7.1620 nb         1 A1A      -0.314000
      2 N3          -0.9370     9.0190    -8.9880 na         1 A1A      -0.328400
      3 C4          -2.1620    14.2280    -2.9110 cx         1 A1A      -0.143400
      4 C5          -2.3730    15.1810    -4.0640 cx         1 A1A      -0.143400
      5 C6           0.2820    11.2710    -6.5030 ca         1 A1A       0.438900
      6 C7           1.2670    11.8640    -8.4890 ca         1 A1A       0.180900
      7 C8          -0.1750    10.0870    -8.5390 ca         1 A1A       0.146500
      8 C10         -1.3120     9.2480    -6.7530 cc         1 A1A      -0.177200
      9 C            0.5830    12.2220    -2.7240 c          1 A1A       0.718000
     10 O1          -0.1480    11.3140    -2.3400 o          1 A1A      -0.721500
     11 C1           0.6190    12.5670    -4.2680 c3         1 A1A       0.078500
     12 C2          -0.1140    13.9060    -4.5640 c3         1 A1A      -0.038400
     13 C3          -1.6160    13.8910    -4.2790 cx         1 A1A      -0.090700
     14 N            0.1030    11.4580    -5.1400 nu         1 A1A      -0.862100
     15 C11         -0.3810    10.2470    -7.1930 ca         1 A1A      -0.273800
     16 C9          -1.6420     8.5020    -7.8720 cd         1 A1A      -0.227100
     17 N2           0.6580    10.8970    -9.2160 nb         1 A1A      -0.287000
     18 H1          -0.9750     8.6800    -9.9440 hn         1 A1A       0.343000
     19 H7          -3.0190    13.6610    -2.5560 hc         1 A1A       0.062700
     20 H6          -1.4580    14.5200    -2.1350 hc         1 A1A       0.062700
     21 H9          -3.3730    15.2570    -4.4840 hc         1 A1A       0.062700
     22 H8          -1.8090    16.1110    -4.0610 hc         1 A1A       0.062700
     23 H11          1.9450    12.5250    -9.0260 h5         1 A1A       0.023100
     24 H13         -1.7000     9.0870    -5.7480 ha         1 A1A       0.206000
     25 H            1.6830    12.7180    -4.4990 h1         1 A1A       0.061700
     26 H4           0.3670    14.6990    -3.9780 hc         1 A1A       0.042700
     27 H3           0.0460    14.1770    -5.6140 hc         1 A1A       0.042700
     28 H5          -2.1410    13.1210    -4.8390 hc         1 A1A       0.066700
     29 H10         -0.4730    10.7540    -4.6770 hn         1 A1A       0.528000
     30 H12         -2.3180     7.6530    -7.9570 h4         1 A1A       0.199000
     31 O            1.3780    12.7910    -1.9860 o          1 A1A      -0.721500
@<TRIPOS>BOND
     1     1     5 ar  
     2     1     6 ar  
     3     2     7 1   
     4     2    16 1   
     5     2    18 1   
     6     3     4 1   
     7     3    13 1   
     8     3    19 1   
     9     3    20 1   
    10     4    13 1   
    11     4    21 1   
    12     4    22 1   
    13     5    14 1   
    14     5    15 ar  
    15     6    17 ar  
    16     6    23 1   
    17     7    15 ar  
    18     7    17 ar  
    19     8    15 1   
    20     8    16 2   
    21     8    24 1   
    22     9    10 1   
    23     9    11 1   
    24     9    31 1   
    25    11    12 1   
    26    11    14 1   
    27    11    25 1   
    28    12    13 1   
    29    12    26 1   
    30    12    27 1   
    31    13    28 1   
    32    14    29 1   
    33    16    30 1   
@<TRIPOS>SUBSTRUCTURE
     1 A1A         1 TEMP              0 ****  ****    0 ROOT
