@<TRIPOS>MOLECULE
A1A
   57    61     1     0     0
SMALL
abcg2


@<TRIPOS>ATOM
      1 N1           4.1130   -14.8330    16.2810 nb         1 A1A      -0.297000
      2 N3           7.9230   -16.0390    16.4950 na         1 A1A      -0.311400
      3 C4           4.4650   -15.8140    17.1120 ca         1 A1A       0.430900
      4 C5           5.0500   -14.2820    15.5090 ca         1 A1A       0.173900
      5 C6           6.6780   -15.5430    16.3020 ca         1 A1A       0.148500
      6 C7           7.8870   -17.0150    17.4690 cc         1 A1A       0.035700
      7 C8           9.0830   -17.7010    17.9020 cc         1 A1A      -0.163800
      8 C13          5.8120   -16.2230    17.1650 ca         1 A1A      -0.248800
      9 C15          1.4890   -13.5190    18.6230 ca         1 A1A      -0.034000
     10 C17          2.0660   -12.4850    20.7370 ca         1 A1A       0.017700
     11 C20          2.3630   -11.5990    23.0830 c6         1 A1A       0.188800
     12 C21          2.0190   -11.2840    21.6410 c6         1 A1A      -0.047100
     13 S            3.5650   -13.8790    22.6150 sy         1 A1A       1.127600
     14 O            4.9280   -14.3470    22.4130 o          1 A1A      -0.542000
     15 N6           3.6450   -12.3080    23.1130 n7         1 A1A      -0.858300
     16 C16          1.4410   -12.4440    19.4920 ca         1 A1A      -0.130000
     17 C18          2.7480   -13.6580    21.0560 ca         1 A1A      -0.248500
     18 C19          2.7970   -14.7460    20.1930 ca         1 A1A      -0.010000
     19 C14          2.1600   -14.6900    18.9630 ca         1 A1A      -0.110300
     20 C3           2.1790   -15.8770    18.0230 c3         1 A1A       0.284800
     21 C1           1.2260   -16.9970    18.4750 c3         1 A1A      -0.067700
     22 C2          -0.1860   -16.4590    18.6830 c3         1 A1A      -0.088100
     23 C            1.2110   -18.1340    17.4580 c3         1 A1A      -0.088100
     24 N            3.5190   -16.4020    17.8700 nu         1 A1A      -0.921100
     25 N2           6.3340   -14.5710    15.4540 nb         1 A1A      -0.226000
     26 C12          6.5930   -17.1580    17.9000 cd         1 A1A      -0.207200
     27 C11          9.2090   -18.5480    18.9870 cd         1 A1A      -0.144000
     28 N5          10.4860   -18.9530    19.0200 na         1 A1A       0.137800
     29 N4          11.2110   -18.4330    18.0360 nd         1 A1A      -0.518800
     30 C9          10.3800   -17.6730    17.3500 cc         1 A1A       0.248900
     31 H1           8.7470   -15.7120    16.0150 hn         1 A1A       0.362000
     32 H10          4.7050   -13.4930    14.8480 h5         1 A1A       0.041100
     33 H17          0.9910   -13.4520    17.6630 ha         1 A1A       0.122000
     34 H21          1.5610   -12.1670    23.5650 h1         1 A1A       0.058700
     35 H22          2.4900   -10.6780    23.6470 h1         1 A1A       0.058700
     36 H23          1.0250   -10.8350    21.5950 hc         1 A1A       0.071700
     37 H24          2.7190   -10.5340    21.2620 hc         1 A1A       0.071700
     38 H20          4.1470   -12.2360    23.9940 hn         1 A1A       0.481000
     39 H18          0.9080   -11.5460    19.2030 ha         1 A1A       0.115000
     40 H19          3.3410   -15.6390    20.4780 ha         1 A1A       0.123000
     41 H            1.8430   -15.5320    17.0420 h1         1 A1A       0.089700
     42 H5           1.5890   -17.3880    19.4340 hc         1 A1A       0.047700
     43 H6          -0.2420   -15.7360    19.4960 hc         1 A1A       0.038533
     44 H7          -0.5580   -15.9750    17.7770 hc         1 A1A       0.038533
     45 H8          -0.8680   -17.2750    18.9260 hc         1 A1A       0.038533
     46 H2           2.1900   -18.5960    17.3340 hc         1 A1A       0.038533
     47 H4           0.5170   -18.9150    17.7700 hc         1 A1A       0.038533
     48 H3           0.8860   -17.7710    16.4800 hc         1 A1A       0.038533
     49 H9           3.8260   -17.0900    18.5400 hn         1 A1A       0.492000
     50 H16          6.2540   -17.8530    18.6520 ha         1 A1A       0.198000
     51 H15          8.4890   -18.8710    19.7220 h4         1 A1A       0.159000
     52 H11         10.7300   -17.1340    16.4820 h4         1 A1A       0.036100
     53 C10         11.0980   -19.8390    19.9820 c3         1 A1A       0.072900
     54 O1           2.7040   -14.7030    23.4550 o          1 A1A      -0.542000
     55 H13         11.5090   -20.7130    19.4800 h1         1 A1A       0.058700
     56 H14         11.8940   -19.3240    20.5160 h1         1 A1A       0.058700
     57 H12         10.3450   -20.1610    20.6940 h1         1 A1A       0.058700
@<TRIPOS>BOND
     1     1     3 ar  
     2     1     4 ar  
     3     2     5 1   
     4     2     6 1   
     5     2    31 1   
     6     3     8 ar  
     7     3    24 1   
     8     4    25 ar  
     9     4    32 1   
    10     5     8 ar  
    11     5    25 ar  
    12     6     7 1   
    13     6    26 2   
    14     7    27 2   
    15     7    30 1   
    16     8    26 1   
    17     9    16 ar  
    18     9    19 ar  
    19     9    33 1   
    20    10    12 1   
    21    10    16 ar  
    22    10    17 ar  
    23    11    12 1   
    24    11    15 1   
    25    11    34 1   
    26    11    35 1   
    27    12    36 1   
    28    12    37 1   
    29    13    14 2   
    30    13    15 1   
    31    13    17 1   
    32    13    54 2   
    33    15    38 1   
    34    16    39 1   
    35    17    18 ar  
    36    18    19 ar  
    37    18    40 1   
    38    19    20 1   
    39    20    21 1   
    40    20    24 1   
    41    20    41 1   
    42    21    22 1   
    43    21    23 1   
    44    21    42 1   
    45    22    43 1   
    46    22    44 1   
    47    22    45 1   
    48    23    46 1   
    49    23    47 1   
    50    23    48 1   
    51    24    49 1   
    52    26    50 1   
    53    27    28 1   
    54    27    51 1   
    55    28    29 1   
    56    28    53 1   
    57    29    30 2   
    58    30    52 1   
    59    53    55 1   
    60    53    56 1   
    61    53    57 1   
@<TRIPOS>SUBSTRUCTURE
     1 A1A         1 TEMP              0 ****  ****    0 ROOT
