@<TRIPOS>MOLECULE
A1A
   57    61     1     0     0
SMALL
No Charge or Current Charge


@<TRIPOS>ATOM
      1 N1           4.1320   -14.5810    16.3090 nb         1 A1A      -0.297000
      2 N3           8.0710   -15.7710    16.5620 na         1 A1A      -0.311400
      3 C4           4.5500   -15.6210    17.0590 ca         1 A1A       0.430900
      4 C5           5.0880   -13.9130    15.6180 ca         1 A1A       0.173900
      5 C6           6.8130   -15.2240    16.3500 ca         1 A1A       0.148500
      6 C7           7.9880   -16.8630    17.4380 cc         1 A1A       0.035700
      7 C8           9.0830   -17.6700    17.8850 cc         1 A1A      -0.163800
      8 C13          5.9080   -15.9560    17.0840 ca         1 A1A      -0.248800
      9 C15          1.5980   -13.5360    18.4650 ca         1 A1A      -0.034000
     10 C17          2.1070   -12.4080    20.5710 ca         1 A1A       0.017700
     11 C20          2.1750   -11.4000    22.9260 c6         1 A1A       0.188800
     12 C21          2.0560   -11.1350    21.4150 c6         1 A1A      -0.047100
     13 S            3.4400   -13.6940    22.6960 sy         1 A1A       1.127600
     14 O            4.8500   -14.0660    22.5560 o          1 A1A      -0.542000
     15 N6           3.4210   -12.1180    23.2450 n7         1 A1A      -0.858300
     16 C16          1.5610   -12.3890    19.2740 ca         1 A1A      -0.130000
     17 C18          2.7070   -13.5930    21.0510 ca         1 A1A      -0.248500
     18 C19          2.7430   -14.7410    20.2340 ca         1 A1A      -0.010000
     19 C14          2.1860   -14.7230    18.9400 ca         1 A1A      -0.110300
     20 C3           2.2160   -15.9700    18.0510 c3         1 A1A       0.284800
     21 C1           1.4390   -17.1780    18.6660 c3         1 A1A      -0.067700
     22 C2           0.0000   -16.7890    19.0940 c3         1 A1A      -0.088100
     23 C            1.3930   -18.3970    17.7080 c3         1 A1A      -0.088100
     24 N            3.6150   -16.3390    17.7880 nu         1 A1A      -0.921100
     25 N2           6.4170   -14.1810    15.5980 nb         1 A1A      -0.226000
     26 C12          6.6550   -16.9890    17.7690 cd         1 A1A      -0.207200
     27 C11          8.9930   -18.7290    18.7360 cd         1 A1A      -0.144000
     28 N5          10.3130   -19.1790    18.8610 na         1 A1A       0.137800
     29 N4          11.2160   -18.4280    18.1120 nd         1 A1A      -0.518800
     30 C9          10.4350   -17.5320    17.5410 cc         1 A1A       0.248900
     31 H1           8.9220   -15.4220    16.1400 hn         1 A1A       0.362000
     32 H10          4.7520   -13.0720    15.0130 h5         1 A1A       0.041100
     33 H17          1.1690   -13.4980    17.4660 ha         1 A1A       0.122000
     34 H21          1.3000   -11.9710    23.2740 h1         1 A1A       0.058700
     35 H22          2.1660   -10.4360    23.4570 h1         1 A1A       0.058700
     36 H23          1.1180   -10.5970    21.2220 hc         1 A1A       0.071700
     37 H24          2.8650   -10.4620    21.1010 hc         1 A1A       0.071700
     38 H20          3.4760   -12.2720    24.2510 hn         1 A1A       0.481000
     39 H18          1.1060   -11.4800    18.8890 ha         1 A1A       0.115000
     40 H19          3.2090   -15.6520    20.6050 ha         1 A1A       0.123000
     41 H            1.7240   -15.7270    17.0970 h1         1 A1A       0.089700
     42 H5           1.9660   -17.4970    19.5740 hc         1 A1A       0.047700
     43 H6           0.0110   -16.0140    19.8690 hc         1 A1A       0.038533
     44 H7          -0.5730   -16.4130    18.2380 hc         1 A1A       0.038533
     45 H8          -0.5290   -17.6570    19.5050 hc         1 A1A       0.038533
     46 H2           2.4010   -18.7580    17.4720 hc         1 A1A       0.038533
     47 H4           0.8450   -19.2290    18.1660 hc         1 A1A       0.038533
     48 H3           0.8940   -18.1350    16.7680 hc         1 A1A       0.038533
     49 H9           3.9940   -17.1220    18.3120 hn         1 A1A       0.492000
     50 H16          6.2490   -17.7440    18.4360 ha         1 A1A       0.198000
     51 H15          8.1500   -19.1850    19.2420 h4         1 A1A       0.159000
     52 H11         10.8770   -16.7950    16.8830 h4         1 A1A       0.036100
     53 C10         10.7730   -20.3120    19.6750 c3         1 A1A       0.072900
     54 O1           2.5360   -14.4330    23.5780 o          1 A1A      -0.542000
     55 H13         11.2490   -21.0580    19.0280 h1         1 A1A       0.058700
     56 H14         11.4970   -19.9590    20.4190 h1         1 A1A       0.058700
     57 H12          9.9200   -20.7700    20.1890 h1         1 A1A       0.058700
@<TRIPOS>BOND
     1     1     3 ar  
     2     1     4 ar  
     3     2     5 1   
     4     2     6 1   
     5     2    31 1   
     6     3     8 ar  
     7     3    24 1   
     8     4    25 ar  
     9     4    32 1   
    10     5     8 ar  
    11     5    25 ar  
    12     6     7 1   
    13     6    26 2   
    14     7    27 2   
    15     7    30 1   
    16     8    26 1   
    17     9    16 ar  
    18     9    19 ar  
    19     9    33 1   
    20    10    12 1   
    21    10    16 ar  
    22    10    17 ar  
    23    11    12 1   
    24    11    15 1   
    25    11    34 1   
    26    11    35 1   
    27    12    36 1   
    28    12    37 1   
    29    13    14 2   
    30    13    15 1   
    31    13    17 1   
    32    13    54 2   
    33    15    38 1   
    34    16    39 1   
    35    17    18 ar  
    36    18    19 ar  
    37    18    40 1   
    38    19    20 1   
    39    20    21 1   
    40    20    24 1   
    41    20    41 1   
    42    21    22 1   
    43    21    23 1   
    44    21    42 1   
    45    22    43 1   
    46    22    44 1   
    47    22    45 1   
    48    23    46 1   
    49    23    47 1   
    50    23    48 1   
    51    24    49 1   
    52    26    50 1   
    53    27    28 1   
    54    27    51 1   
    55    28    29 1   
    56    28    53 1   
    57    29    30 2   
    58    30    52 1   
    59    53    55 1   
    60    53    56 1   
    61    53    57 1   
@<TRIPOS>SUBSTRUCTURE
     1 A1A         1 TEMP              0 ****  ****    0 ROOT
