@<TRIPOS>MOLECULE
A1A
   54    58     1     0     0
SMALL
No Charge or Current Charge


@<TRIPOS>ATOM
      1 N1           9.1970    -7.0780    19.3250 nb         1 A1A      -0.311000
      2 N3           5.3430    -8.3520    20.0250 na         1 A1A      -0.310400
      3 C4           8.6320    -8.1270    18.6970 ca         1 A1A       0.445900
      4 C5           8.4260    -6.4330    20.2350 ca         1 A1A       0.185900
      5 C6           6.6020    -7.7800    19.9320 ca         1 A1A       0.156500
      6 C7           5.2260    -9.4440    19.1460 cc         1 A1A      -0.000300
      7 C8           4.0460   -10.2560    18.9980 cc         1 A1A      -0.080800
      8 C13          6.4480    -9.5350    18.5030 cd         1 A1A      -0.176200
      9 C15         10.7080    -8.6160    15.6550 ca         1 A1A       0.345300
     10 C17         11.2840    -7.7320    13.4480 ca         1 A1A      -0.069000
     11 C20          9.4900   -11.2500    11.9200 c          1 A1A       0.548000
     12 C21          9.6080    -9.9880    11.0300 c6         1 A1A       0.069600
     13 O            9.4180   -12.3890    11.4790 o          1 A1A      -0.514000
     14 O1          10.6180    -9.0600    11.5260 os         1 A1A      -0.318100
     15 C18         10.6610    -8.8590    12.8970 ca         1 A1A       0.035100
     16 C16         11.2970    -7.6100    14.8520 ca         1 A1A      -0.146000
     17 N8           9.5490   -10.9820    13.2640 ns         1 A1A      -0.319900
     18 C19         10.0990    -9.8110    13.7770 ca         1 A1A       0.438900
     19 N7          10.1130    -9.7210    15.1190 nb         1 A1A      -0.707000
     20 C3          10.7130    -8.4900    17.2010 c3         1 A1A       0.195200
     21 C1          11.8130    -9.3830    17.8660 c3         1 A1A      -0.069700
     22 C2          13.2140    -9.1550    17.2430 c3         1 A1A      -0.087600
     23 C           11.8890    -9.2020    19.4050 c3         1 A1A      -0.087600
     24 N            9.3710    -8.8210    17.7510 nu         1 A1A      -0.913100
     25 C14          7.3150    -8.4890    18.9960 ca         1 A1A      -0.264800
     26 N2           7.1470    -6.7310    20.5750 nb         1 A1A      -0.235000
     27 C11          3.8510   -11.3280    18.1690 cd         1 A1A      -0.084000
     28 C12          4.7070   -11.9610    17.2270 ch         1 A1A       0.344000
     29 N6           5.3880   -12.4990    16.4460 n1         1 A1A      -0.430000
     30 N5           2.5330   -11.7360    18.4300 na         1 A1A       0.164800
     31 N4           1.9060   -10.9530    19.3930 nd         1 A1A      -0.490800
     32 C9           2.8440   -10.0820    19.7040 cc         1 A1A       0.231900
     33 H1           4.6160    -8.0200    20.6460 hn         1 A1A       0.363000
     34 H10          8.8800    -5.5860    20.7460 h5         1 A1A       0.043100
     35 H13          0.8010   -12.9310    18.2100 h1         1 A1A       0.068367
     36 H14          1.7570   -12.6930    16.7190 h1         1 A1A       0.068367
     37 H12          2.3530   -13.7930    18.0000 h1         1 A1A       0.068367
     38 H15          6.7190   -10.2710    17.7530 ha         1 A1A       0.208000
     39 H17         11.7370    -6.9760    12.8110 ha         1 A1A       0.139000
     40 H19          9.8510   -10.2960    10.0050 h1         1 A1A       0.088200
     41 H20          8.6280    -9.4930    11.0380 h1         1 A1A       0.088200
     42 H16         11.7640    -6.7460    15.3170 ha         1 A1A       0.137000
     43 H18          9.4380   -11.7510    13.9090 hn         1 A1A       0.179000
     44 H           10.9550    -7.4410    17.4250 h1         1 A1A       0.099700
     45 H5          11.5470   -10.4310    17.6770 hc         1 A1A       0.058700
     46 H7          13.2270    -9.4230    16.1800 hc         1 A1A       0.038033
     47 H6          13.5180    -8.1050    17.3380 hc         1 A1A       0.038033
     48 H8          13.9670    -9.7750    17.7440 hc         1 A1A       0.038033
     49 H3          10.9490    -9.4930    19.8870 hc         1 A1A       0.038033
     50 H4          12.6820    -9.8280    19.8310 hc         1 A1A       0.038033
     51 H2          12.1010    -8.1580    19.6650 hc         1 A1A       0.038033
     52 H9           8.8490    -9.5230    17.2280 hn         1 A1A       0.510000
     53 H11          2.6250    -9.3300    20.4500 h4         1 A1A       0.043100
     54 C10          1.8160   -12.8580    17.8010 c3         1 A1A       0.065900
@<TRIPOS>BOND
     1     1     3 ar  
     2     1     4 ar  
     3     2     5 1   
     4     2     6 1   
     5     2    33 1   
     6     3    24 1   
     7     3    25 ar  
     8     4    26 ar  
     9     4    34 1   
    10     5    25 ar  
    11     5    26 ar  
    12     6     7 1   
    13     6     8 2   
    14     7    27 2   
    15     7    32 1   
    16     8    25 1   
    17     8    38 1   
    18     9    16 ar  
    19     9    19 ar  
    20     9    20 1   
    21    10    15 ar  
    22    10    16 ar  
    23    10    39 1   
    24    11    12 1   
    25    11    13 2   
    26    11    17 1   
    27    12    14 1   
    28    12    40 1   
    29    12    41 1   
    30    14    15 1   
    31    15    18 ar  
    32    16    42 1   
    33    17    18 1   
    34    17    43 1   
    35    18    19 ar  
    36    20    21 1   
    37    20    24 1   
    38    20    44 1   
    39    21    22 1   
    40    21    23 1   
    41    21    45 1   
    42    22    46 1   
    43    22    47 1   
    44    22    48 1   
    45    23    49 1   
    46    23    50 1   
    47    23    51 1   
    48    24    52 1   
    49    27    28 1   
    50    27    30 1   
    51    28    29 3   
    52    30    31 1   
    53    30    54 1   
    54    31    32 2   
    55    32    53 1   
    56    35    54 1   
    57    36    54 1   
    58    37    54 1   
@<TRIPOS>SUBSTRUCTURE
     1 A1A         1 TEMP              0 ****  ****    0 ROOT
