@<TRIPOS>MOLECULE
A1A
   57    61     1     0     0
SMALL
abcg2


@<TRIPOS>ATOM
      1 N1          11.1630   -18.3090    18.0370 nc         1 A1A      -0.492800
      2 N3           3.1150   -14.1530    20.3550 nb         1 A1A      -0.684000
      3 C4           6.6740   -16.6260    18.1040 cc         1 A1A      -0.170200
      4 C5           5.9310   -15.7070    17.3160 ca         1 A1A      -0.258800
      5 C6           4.6050   -15.2260    17.2690 ca         1 A1A       0.438900
      6 C7           2.3500   -15.1060    18.2550 c3         1 A1A       0.197200
      7 C8           2.3760   -13.9750    19.2620 ca         1 A1A       0.339300
      8 C10          1.7370   -11.7940    20.0020 ca         1 A1A      -0.077000
      9 C13          3.7680   -12.5970    23.4350 c6         1 A1A       0.120600
     10 C15          1.2920   -16.2060    18.5520 c3         1 A1A      -0.046000
     11 C17         -0.0930   -15.5620    18.6190 c3         1 A1A      -0.085433
     12 C20          6.8020   -15.1730    16.3620 ca         1 A1A       0.154500
     13 C21          9.3230   -18.0410    19.2240 cc         1 A1A      -0.083000
     14 C22          8.4940   -18.1800    20.3540 cg         1 A1A       0.343000
     15 N7           7.8170   -18.2900    21.2810 n1         1 A1A      -0.427000
     16 N           10.5600   -18.5890    19.1700 na         1 A1A       0.163800
     17 C           11.2070   -19.3720    20.2000 c3         1 A1A       0.065900
     18 C2           9.1180   -17.3610    18.0290 cd         1 A1A      -0.080800
     19 C1          10.3200   -17.5740    17.3340 cd         1 A1A       0.232900
     20 C3           7.9540   -16.6180    17.6100 cd         1 A1A      -0.005300
     21 N6           8.0170   -15.7370    16.5510 na         1 A1A      -0.310400
     22 N5           6.4840   -14.2650    15.4350 nb         1 A1A      -0.235000
     23 C19          5.2200   -13.8990    15.5010 ca         1 A1A       0.182900
     24 N4           4.2810   -14.3160    16.3510 nb         1 A1A      -0.306000
     25 N2           3.6680   -15.6820    18.1160 nu         1 A1A      -0.895100
     26 C16          1.3070   -17.2120    17.3980 c3         1 A1A      -0.085433
     27 C12          3.1740   -13.2110    21.2640 ca         1 A1A       0.525300
     28 O            3.9370   -13.4860    22.3370 os         1 A1A      -0.435300
     29 C14          3.6920   -11.1690    22.9520 c6         1 A1A       0.114600
     30 O1           2.5920   -11.0110    22.0680 os         1 A1A      -0.322100
     31 C11          2.5010   -11.9860    21.1370 ca         1 A1A       0.007100
     32 C9           1.6680   -12.8030    19.0500 ca         1 A1A      -0.148000
     33 H6           6.3080   -17.2350    18.9160 ha         1 A1A       0.209000
     34 H            2.0840   -14.6770    17.2870 h1         1 A1A       0.093700
     35 H9           1.2100   -10.8590    19.8620 ha         1 A1A       0.133000
     36 H11          2.8640   -12.8620    23.9930 h1         1 A1A       0.071200
     37 H10          4.6280   -12.7330    24.0900 h1         1 A1A       0.071200
     38 H17         -0.8550   -16.3340    18.7400 hc         1 A1A       0.037811
     39 H18         -0.1900   -14.8750    19.4600 hc         1 A1A       0.037811
     40 H19         -0.3250   -15.0110    17.7040 hc         1 A1A       0.037811
     41 H3          12.1820   -19.6700    19.8300 h1         1 A1A       0.067367
     42 H4          11.3300   -18.7800    21.1050 h1         1 A1A       0.067367
     43 H2          10.6210   -20.2610    20.4260 h1         1 A1A       0.067367
     44 H5          10.5920   -17.2260    16.3490 h4         1 A1A       0.044100
     45 H1           8.8420   -15.5050    16.0210 hn         1 A1A       0.361000
     46 H23          4.8960   -13.1610    14.7750 h5         1 A1A       0.042100
     47 H7           3.9980   -16.2440    18.8860 hn         1 A1A       0.505000
     48 H21          0.7850   -17.7010    20.0160 hc         1 A1A       0.037811
     49 H22          2.5150   -17.4720    19.8650 hc         1 A1A       0.037811
     50 H20          1.5400   -16.2790    20.7260 hc         1 A1A       0.037811
     51 H14          0.5230   -17.9570    17.5440 hc         1 A1A       0.037811
     52 H16          1.1230   -16.7210    16.4400 hc         1 A1A       0.037811
     53 H15          2.2570   -17.7400    17.3290 hc         1 A1A       0.037811
     54 H12          3.5340   -10.4930    23.7910 h1         1 A1A       0.070700
     55 H13          4.6230   -10.8840    22.4500 h1         1 A1A       0.070700
     56 H8           1.0790   -12.6700    18.1520 ha         1 A1A       0.132000
     57 C18          1.5580   -16.9450    19.8640 c3         1 A1A      -0.085433
@<TRIPOS>BOND
     1     1    16 1   
     2     1    19 2   
     3     2     7 ar  
     4     2    27 ar  
     5     3     4 1   
     6     3    20 2   
     7     3    33 1   
     8     4     5 ar  
     9     4    12 ar  
    10     5    24 ar  
    11     5    25 1   
    12     6     7 1   
    13     6    10 1   
    14     6    25 1   
    15     6    34 1   
    16     7    32 ar  
    17     8    31 ar  
    18     8    32 ar  
    19     8    35 1   
    20     9    28 1   
    21     9    29 1   
    22     9    36 1   
    23     9    37 1   
    24    10    11 1   
    25    10    26 1   
    26    10    57 1   
    27    11    38 1   
    28    11    39 1   
    29    11    40 1   
    30    12    21 1   
    31    12    22 ar  
    32    13    14 1   
    33    13    16 1   
    34    13    18 2   
    35    14    15 3   
    36    16    17 1   
    37    17    41 1   
    38    17    42 1   
    39    17    43 1   
    40    18    19 1   
    41    18    20 1   
    42    19    44 1   
    43    20    21 1   
    44    21    45 1   
    45    22    23 ar  
    46    23    24 ar  
    47    23    46 1   
    48    25    47 1   
    49    26    51 1   
    50    26    52 1   
    51    26    53 1   
    52    27    28 1   
    53    27    31 ar  
    54    29    30 1   
    55    29    54 1   
    56    29    55 1   
    57    30    31 1   
    58    32    56 1   
    59    48    57 1   
    60    49    57 1   
    61    50    57 1   
@<TRIPOS>SUBSTRUCTURE
     1 A1A         1 TEMP              0 ****  ****    0 ROOT
