@<TRIPOS>MOLECULE
A1A
   25    27     1     0     0
SMALL
abcg2


@<TRIPOS>ATOM
      1 C4          25.8170    -8.1900   -38.5760 ca         1 A1A      -0.145000
      2 C5          26.0090    -7.9810   -39.9460 ca         1 A1A       0.287000
      3 C6          26.4650    -9.0530   -40.7230 ca         1 A1A      -0.156000
      4 C8          25.8640    -9.6540   -36.5840 cc         1 A1A       0.608200
      5 C10         25.7190   -10.4340   -34.6280 ca         1 A1A       0.464000
      6 C13         24.8680    -8.5150   -33.4250 ca         1 A1A      -0.048000
      7 C15         25.3490   -10.6740   -32.4400 ca         1 A1A       0.329900
      8 C1          26.7160   -10.2870   -40.1460 ca         1 A1A      -0.081000
      9 C2          26.5240   -10.4960   -38.7900 ca         1 A1A      -0.103000
     10 C3          26.0700    -9.4340   -38.0070 ca         1 A1A      -0.089900
     11 N7          25.7060    -6.7700   -40.5200 nv         1 A1A      -1.077000
     12 N9          26.0760   -10.7400   -35.9200 nd         1 A1A      -0.635700
     13 C11         25.2920    -9.1090   -34.5900 ca         1 A1A      -0.025900
     14 O12         25.3890    -8.6210   -35.8460 os         1 A1A      -0.272700
     15 C14         24.9070    -9.3530   -32.3160 ca         1 A1A      -0.155000
     16 N16         25.7560   -11.2300   -33.5760 nb         1 A1A      -0.600000
     17 H1          25.4680    -7.3650   -37.9680 ha         1 A1A       0.125000
     18 H2          26.6220    -8.9130   -41.7860 ha         1 A1A       0.115000
     19 H3          24.5330    -7.4880   -33.3660 ha         1 A1A       0.138000
     20 H4          25.3690   -11.3080   -31.5610 h4         1 A1A       0.027100
     21 H5          27.0690   -11.1000   -40.7670 ha         1 A1A       0.118000
     22 H6          26.7200   -11.4610   -38.3460 ha         1 A1A       0.143000
     23 H7          25.7020    -5.9730   -39.9030 hn         1 A1A       0.453000
     24 H8          26.1600    -6.5680   -41.3960 hn         1 A1A       0.453000
     25 H9          24.5960    -8.9890   -31.3480 ha         1 A1A       0.128000
@<TRIPOS>BOND
     1     1     2 ar  
     2     1    10 ar  
     3     1    17 1   
     4     2     3 ar  
     5     2    11 1   
     6     3     8 ar  
     7     3    18 1   
     8     4    10 1   
     9     4    12 2   
    10     4    14 1   
    11     5    12 1   
    12     5    13 ar  
    13     5    16 ar  
    14     6    13 ar  
    15     6    15 ar  
    16     6    19 1   
    17     7    15 ar  
    18     7    16 ar  
    19     7    20 1   
    20     8     9 ar  
    21     8    21 1   
    22     9    10 ar  
    23     9    22 1   
    24    11    23 1   
    25    11    24 1   
    26    13    14 1   
    27    15    25 1   
@<TRIPOS>SUBSTRUCTURE
     1 A1A         1 TEMP              0 ****  ****    0 ROOT
