@<TRIPOS>MOLECULE
A1A
   64    68     1     0     0
SMALL
abcg2


@<TRIPOS>ATOM
      1 N1         -10.5210    -7.4610    18.2060 nb         1 A1A      -0.295000
      2 N3         -14.1890    -8.6990    19.2270 na         1 A1A      -0.315400
      3 C4         -10.7980    -8.7650    18.2770 ca         1 A1A       0.432900
      4 C5         -11.4860    -6.5860    18.4870 ca         1 A1A       0.175900
      5 C6         -13.0010    -8.1370    18.8990 ca         1 A1A       0.149500
      6 C7         -14.0780   -10.0720    19.1850 cc         1 A1A       0.028700
      7 C8         -15.1900   -10.9410    19.4920 cc         1 A1A      -0.152800
      8 C13        -20.9660   -12.4780    21.7440 c3         1 A1A       0.083800
      9 C15        -12.7960   -10.4000    18.8220 cd         1 A1A      -0.200200
     10 C17         -8.6130    -8.9560    16.0210 ca         1 A1A      -0.100300
     11 C20         -8.7700    -8.3350    13.2960 ca         1 A1A       0.060100
     12 C21         -9.2090    -9.5800    13.7630 ca         1 A1A       0.053100
     13 C22         -9.1320    -9.8740    15.1160 ca         1 A1A      -0.101000
     14 C24         -9.6850    -8.8330    11.2110 c6         1 A1A       0.118600
     15 O          -17.5480   -11.8380    22.6390 o          1 A1A      -0.569100
     16 C11        -18.5660   -11.9770    21.9810 c          1 A1A       0.584100
     17 N6         -19.7850   -12.1610    22.5200 n          1 A1A      -0.407800
     18 C12        -19.9190   -12.3050    23.9560 c3         1 A1A       0.083800
     19 N5         -17.1530   -11.7590    20.0010 na         1 A1A       0.144800
     20 N4         -16.3830   -12.8270    19.8130 nd         1 A1A      -0.512800
     21 C9         -15.1970   -12.3530    19.5000 cc         1 A1A       0.270900
     22 C14        -16.4850   -10.6060    19.8350 cd         1 A1A      -0.149000
     23 C16        -12.0990    -9.1730    18.6370 ca         1 A1A      -0.253800
     24 N2         -12.7330    -6.8300    18.8360 nb         1 A1A      -0.234000
     25 N           -9.8250    -9.6570    18.0270 nu         1 A1A      -0.915100
     26 C3          -8.5240    -9.3000    17.4930 c3         1 A1A       0.290800
     27 C1          -7.5220   -10.4310    17.7780 c3         1 A1A      -0.068700
     28 C2          -6.1490   -10.0910    17.2100 c3         1 A1A      -0.087600
     29 C           -7.4140   -10.7090    19.2750 c3         1 A1A      -0.087600
     30 O1          -9.7110   -10.5180    12.9240 os         1 A1A      -0.332100
     31 C23         -9.4340   -10.2830    11.5520 c6         1 A1A       0.118600
     32 O2          -8.8440    -7.9950    11.9860 os         1 A1A      -0.330100
     33 C19         -8.2460    -7.4200    14.1960 ca         1 A1A      -0.111000
     34 C18         -8.1650    -7.7290    15.5460 ca         1 A1A      -0.082000
     35 H1         -15.0180    -8.1800    19.4680 hn         1 A1A       0.357000
     36 H10        -11.2020    -5.5410    18.4160 h5         1 A1A       0.041100
     37 H13        -19.0960   -11.0770    20.0800 h1         1 A1A       0.083200
     38 H12        -18.9080   -12.8220    20.0010 h1         1 A1A       0.083200
     39 H17        -21.8420   -12.0810    22.2530 h1         1 A1A       0.044200
     40 H19        -20.9410   -12.0260    20.7560 h1         1 A1A       0.044200
     41 H18        -21.1000   -13.5570    21.6280 h1         1 A1A       0.044200
     42 H21        -12.4130   -11.4020    18.7070 ha         1 A1A       0.200000
     43 H24         -9.4860   -10.8430    15.4520 ha         1 A1A       0.120000
     44 H28         -9.4540    -8.6430    10.1630 h1         1 A1A       0.066700
     45 H27        -10.7360    -8.5780    11.3830 h1         1 A1A       0.066700
     46 H14        -20.8480   -11.8370    24.2790 h1         1 A1A       0.044200
     47 H16        -19.9450   -13.3570    24.2520 h1         1 A1A       0.044200
     48 H15        -19.0930   -11.8220    24.4680 h1         1 A1A       0.044200
     49 H11        -14.3790   -13.0220    19.2790 h4         1 A1A       0.042100
     50 H20        -16.9690    -9.6500    19.9610 h4         1 A1A       0.152000
     51 H9         -10.0930   -10.6280    17.9800 hn         1 A1A       0.491000
     52 H           -8.1800    -8.4120    18.0300 h1         1 A1A       0.086700
     53 H5          -7.8820   -11.3400    17.2780 hc         1 A1A       0.045700
     54 H7          -6.1660    -9.9720    16.1270 hc         1 A1A       0.037867
     55 H6          -5.7660    -9.1640    17.6430 hc         1 A1A       0.037867
     56 H8          -5.4360   -10.8830    17.4430 hc         1 A1A       0.037867
     57 H2          -8.3610   -11.0240    19.7130 hc         1 A1A       0.037867
     58 H3          -6.6860   -11.4990    19.4620 hc         1 A1A       0.037867
     59 H4          -7.0790    -9.8170    19.8090 hc         1 A1A       0.037867
     60 H26         -8.3970   -10.5530    11.3250 h1         1 A1A       0.065200
     61 H25        -10.0920   -10.9300    10.9740 h1         1 A1A       0.065200
     62 H23         -7.9070    -6.4580    13.8310 ha         1 A1A       0.128000
     63 H22         -7.7560    -7.0010    16.2360 ha         1 A1A       0.124000
     64 C10        -18.5050   -11.9150    20.4530 c3         1 A1A       0.000600
@<TRIPOS>BOND
     1     1     3 ar  
     2     1     4 ar  
     3     2     5 1   
     4     2     6 1   
     5     2    35 1   
     6     3    23 ar  
     7     3    25 1   
     8     4    24 ar  
     9     4    36 1   
    10     5    23 ar  
    11     5    24 ar  
    12     6     7 1   
    13     6     9 2   
    14     7    21 1   
    15     7    22 2   
    16     8    17 1   
    17     8    39 1   
    18     8    40 1   
    19     8    41 1   
    20     9    23 1   
    21     9    42 1   
    22    10    13 ar  
    23    10    26 1   
    24    10    34 ar  
    25    11    12 ar  
    26    11    32 1   
    27    11    33 ar  
    28    12    13 ar  
    29    12    30 1   
    30    13    43 1   
    31    14    31 1   
    32    14    32 1   
    33    14    44 1   
    34    14    45 1   
    35    15    16 2   
    36    16    17 1   
    37    16    64 1   
    38    17    18 1   
    39    18    46 1   
    40    18    47 1   
    41    18    48 1   
    42    19    20 1   
    43    19    22 1   
    44    19    64 1   
    45    20    21 2   
    46    21    49 1   
    47    22    50 1   
    48    25    26 1   
    49    25    51 1   
    50    26    27 1   
    51    26    52 1   
    52    27    28 1   
    53    27    29 1   
    54    27    53 1   
    55    28    54 1   
    56    28    55 1   
    57    28    56 1   
    58    29    57 1   
    59    29    58 1   
    60    29    59 1   
    61    30    31 1   
    62    31    60 1   
    63    31    61 1   
    64    33    34 ar  
    65    33    62 1   
    66    34    63 1   
    67    37    64 1   
    68    38    64 1   
@<TRIPOS>SUBSTRUCTURE
     1 A1A         1 TEMP              0 ****  ****    0 ROOT
