@<TRIPOS>MOLECULE
A1A
   18    19     1     0     0
SMALL
abcg2


@<TRIPOS>ATOM
      1 C4          49.4110     3.4540   -21.1130 ca         1 A1A      -0.207000
      2 C5          49.4210     2.4420   -22.0730 ca         1 A1A      -0.009200
      3 C6          49.5170     2.7000   -23.4570 ca         1 A1A      -0.136800
      4 C7          49.5040     1.4300   -24.1200 cc         1 A1A      -0.225200
      5 C8          49.4010     0.4820   -23.1460 cd         1 A1A      -0.176100
      6 C1          49.6020     4.0320   -23.8740 ca         1 A1A      -0.024000
      7 C2          49.5880     5.0430   -22.9360 ca         1 A1A      -0.192000
      8 C3          49.4940     4.7700   -21.5500 ca         1 A1A       0.297000
      9 N9          49.3500     1.0890   -21.9170 na         1 A1A      -0.230700
     10 N10         49.4310     5.8260   -20.6510 nv         1 A1A      -1.062000
     11 H1          49.3410     3.2240   -20.0560 ha         1 A1A       0.112000
     12 H2          49.5620     1.2470   -25.1810 ha         1 A1A       0.202000
     13 H3          49.3590    -0.5930   -23.2270 h4         1 A1A       0.209000
     14 H4          49.6800     4.2770   -24.9260 ha         1 A1A       0.112000
     15 H5          49.6520     6.0750   -23.2620 ha         1 A1A       0.110000
     16 H6          49.2790     0.6060   -21.0380 hn         1 A1A       0.346000
     17 H7          49.7120     5.5970   -19.7110 hn         1 A1A       0.438500
     18 H8          49.8860     6.6700   -20.9620 hn         1 A1A       0.438500
@<TRIPOS>BOND
     1     1     2 ar  
     2     1     8 ar  
     3     1    11 1   
     4     2     3 ar  
     5     2     9 1   
     6     3     4 1   
     7     3     6 ar  
     8     4     5 2   
     9     4    12 1   
    10     5     9 1   
    11     5    13 1   
    12     6     7 ar  
    13     6    14 1   
    14     7     8 ar  
    15     7    15 1   
    16     8    10 1   
    17     9    16 1   
    18    10    17 1   
    19    10    18 1   
@<TRIPOS>SUBSTRUCTURE
     1 A1A         1 TEMP              0 ****  ****    0 ROOT
