@<TRIPOS>MOLECULE
A1A
   46    49     1     0     0
SMALL
No Charge or Current Charge


@<TRIPOS>ATOM
      1 N1           6.3430   -14.0060    16.2940 nb         1 A1A      -0.213000
      2 N3           9.5600   -16.3630    15.2650 na         1 A1A      -0.322400
      3 C4           3.3500   -14.0080    20.0640 ca         1 A1A      -0.150300
      4 C5           3.4310   -15.2050    19.1170 c3         1 A1A       0.176000
      5 C6           5.5330   -15.7800    17.8300 c          1 A1A       0.510600
      6 C7           6.5400   -15.2440    16.8220 ca         1 A1A       0.111500
      7 C8           7.2560   -13.5550    15.3970 ca         1 A1A       0.137900
      8 C10          9.3620   -17.5280    16.0380 cc         1 A1A      -0.158100
      9 C13          2.0630   -15.5590    18.4600 c3         1 A1A      -0.106000
     10 C15          2.1140   -16.7350    17.5070 cc         1 A1A       0.399800
     11 C17          2.8520   -11.6560    20.4910 ca         1 A1A      -0.173000
     12 O1           5.6190   -16.8860    18.3530 o          1 A1A      -0.597100
     13 C12          7.6780   -15.9680    16.4000 ca         1 A1A      -0.141800
     14 C11          8.1950   -17.2740    16.7360 cd         1 A1A      -0.191200
     15 C9           8.5530   -15.4320    15.4840 ca         1 A1A       0.116500
     16 N2           8.3590   -14.2090    14.9610 nb         1 A1A      -0.177000
     17 N            4.4750   -14.9410    18.1260 ns         1 A1A      -0.491900
     18 N7           3.0460   -17.7310    17.4630 na         1 A1A      -0.212700
     19 N6           2.7390   -18.6320    16.4990 nc         1 A1A      -0.201800
     20 N5           1.6270   -18.1870    15.9820 nd         1 A1A      -0.042000
     21 N4           1.2190   -17.0190    16.5820 nd         1 A1A      -0.390000
     22 C14          0.9580   -15.7850    19.5270 c3         1 A1A      -0.089100
     23 C3           3.7160   -14.1590    21.4170 ca         1 A1A      -0.054000
     24 C2           3.6470   -13.0690    22.3020 ca         1 A1A      -0.173000
     25 C16          2.9210   -12.7450    19.6060 ca         1 A1A      -0.054000
     26 C1           3.2120   -11.8090    21.8390 ca         1 A1A       0.150100
     27 O            3.1240   -10.7030    22.6600 os         1 A1A      -0.339100
     28 C            3.4690   -10.7540    24.0560 c3         1 A1A       0.147900
     29 H1          10.3360   -16.2110    14.6280 hn         1 A1A       0.367000
     30 H            3.7360   -16.0750    19.7160 h1         1 A1A       0.068700
     31 H10          7.0830   -12.5630    14.9830 h5         1 A1A       0.055100
     32 H11         10.0290   -18.3890    16.0260 h4         1 A1A       0.220000
     33 H2           1.7550   -14.6920    17.8640 hc         1 A1A       0.093700
     34 H12          7.7430   -17.9720    17.4390 ha         1 A1A       0.232000
     35 H9           4.4830   -14.0360    17.6690 hn         1 A1A       0.353500
     36 H3           3.9010   -17.7870    18.0110 hn         1 A1A       0.387000
     37 H15         -0.0030   -16.0120    19.0490 hc         1 A1A       0.048700
     38 H13          1.2180   -16.6240    20.1840 hc         1 A1A       0.048700
     39 H14          0.8120   -14.8940    20.1490 hc         1 A1A       0.048700
     40 H8           4.0540   -15.1250    21.7880 ha         1 A1A       0.114500
     41 H7           3.9340   -13.2210    23.3380 ha         1 A1A       0.125000
     42 H16          2.6390   -12.6010    18.5650 ha         1 A1A       0.114500
     43 H4           3.3260    -9.7700    24.5190 h1         1 A1A       0.042367
     44 H6           2.8350   -11.4750    24.5880 h1         1 A1A       0.042367
     45 H5           4.5190   -11.0430    24.1880 h1         1 A1A       0.042367
     46 H17          2.5190   -10.6860    20.1300 ha         1 A1A       0.125000
@<TRIPOS>BOND
     1     1     6 ar  
     2     1     7 ar  
     3     2     8 1   
     4     2    15 1   
     5     2    29 1   
     6     3     4 1   
     7     3    23 ar  
     8     3    25 ar  
     9     4     9 1   
    10     4    17 1   
    11     4    30 1   
    12     5     6 1   
    13     5    12 2   
    14     5    17 1   
    15     6    13 ar  
    16     7    16 ar  
    17     7    31 1   
    18     8    14 2   
    19     8    32 1   
    20     9    10 1   
    21     9    22 1   
    22     9    33 1   
    23    10    18 1   
    24    10    21 2   
    25    11    25 ar  
    26    11    26 ar  
    27    11    46 1   
    28    13    14 1   
    29    13    15 ar  
    30    14    34 1   
    31    15    16 ar  
    32    17    35 1   
    33    18    19 1   
    34    18    36 1   
    35    19    20 2   
    36    20    21 1   
    37    22    37 1   
    38    22    38 1   
    39    22    39 1   
    40    23    24 ar  
    41    23    40 1   
    42    24    26 ar  
    43    24    41 1   
    44    25    42 1   
    45    26    27 1   
    46    27    28 1   
    47    28    43 1   
    48    28    44 1   
    49    28    45 1   
@<TRIPOS>SUBSTRUCTURE
     1 A1A         1 TEMP              0 ****  ****    0 ROOT
