@<TRIPOS>MOLECULE
A1A
   31    32     1     0     0
SMALL
No Charge or Current Charge


@<TRIPOS>ATOM
      1 N1           5.6110   -14.8880    14.8390 nb         1 A1A      -0.301000
      2 N3           9.6090   -15.5570    15.5680 na         1 A1A      -0.316400
      3 C4           6.1040   -15.2380    16.0430 ca         1 A1A       0.444900
      4 C5           6.5120   -14.7590    13.8340 ca         1 A1A       0.180900
      5 C6           8.3210   -15.2920    15.1260 ca         1 A1A       0.146500
      6 C7           9.6280   -15.8880    16.9430 cc         1 A1A      -0.178100
      7 C8           8.3010   -15.8150    17.3260 cd         1 A1A      -0.205200
      8 C10          3.3310   -17.0140    16.8010 c3         1 A1A       0.155300
      9 F1           3.7640   -17.8100    17.8090 f          1 A1A      -0.122500
     10 F            3.8770   -17.4860    15.6540 f          1 A1A      -0.122500
     11 C3           3.7470   -15.5240    17.0480 c3         1 A1A       0.182500
     12 C1           3.1120   -14.9050    18.3380 c3         1 A1A      -0.070700
     13 C2           1.5690   -15.0600    18.3820 c3         1 A1A      -0.090600
     14 C            3.4860   -13.4090    18.5200 c3         1 A1A      -0.090600
     15 N            5.2260   -15.3840    17.1090 nu         1 A1A      -0.924100
     16 C9           7.4790   -15.4440    16.1980 ca         1 A1A      -0.257800
     17 N2           7.8530   -14.9450    13.9140 nb         1 A1A      -0.228000
     18 H1          10.4270   -15.5150    14.9680 hn         1 A1A       0.362000
     19 H10          6.1170   -14.4780    12.8590 h5         1 A1A       0.043100
     20 H11         10.5320   -16.1320    17.4990 h4         1 A1A       0.217000
     21 H12          7.9440   -16.0110    18.3360 ha         1 A1A       0.203000
     22 H13          2.2430   -17.0990    16.7230 h2         1 A1A       0.064700
     23 H            3.3550   -14.9390    16.2020 h1         1 A1A       0.109700
     24 H5           3.5120   -15.4460    19.2060 hc         1 A1A       0.055700
     25 H6           1.2740   -16.1140    18.4410 hc         1 A1A       0.039867
     26 H7           1.1540   -14.5600    19.2650 hc         1 A1A       0.039867
     27 H8           1.1060   -14.6180    17.4920 hc         1 A1A       0.039867
     28 H2           4.5690   -13.2740    18.6210 hc         1 A1A       0.039867
     29 H3           3.1450   -12.8150    17.6630 hc         1 A1A       0.039867
     30 H4           3.0210   -12.9990    19.4250 hc         1 A1A       0.039867
     31 H9           5.6780   -15.6680    17.9750 hn         1 A1A       0.503000
@<TRIPOS>BOND
     1     1     3 ar  
     2     1     4 ar  
     3     2     5 1   
     4     2     6 1   
     5     2    18 1   
     6     3    15 1   
     7     3    16 ar  
     8     4    17 ar  
     9     4    19 1   
    10     5    16 ar  
    11     5    17 ar  
    12     6     7 2   
    13     6    20 1   
    14     7    16 1   
    15     7    21 1   
    16     8     9 1   
    17     8    10 1   
    18     8    11 1   
    19     8    22 1   
    20    11    12 1   
    21    11    15 1   
    22    11    23 1   
    23    12    13 1   
    24    12    14 1   
    25    12    24 1   
    26    13    25 1   
    27    13    26 1   
    28    13    27 1   
    29    14    28 1   
    30    14    29 1   
    31    14    30 1   
    32    15    31 1   
@<TRIPOS>SUBSTRUCTURE
     1 A1A         1 TEMP              0 ****  ****    0 ROOT
