@<TRIPOS>MOLECULE
A1A
   31    32     1     0     0
SMALL
abcg2


@<TRIPOS>ATOM
      1 N1           5.5670   -14.9100    15.0300 nb         1 A1A      -0.301000
      2 N3           9.5130   -15.3240    15.5500 na         1 A1A      -0.316400
      3 C4           6.0500   -15.3770    16.1810 ca         1 A1A       0.444900
      4 C5           6.4230   -14.5760    14.0650 ca         1 A1A       0.180900
      5 C6           8.2120   -15.1230    15.2350 ca         1 A1A       0.146500
      6 C7           9.5980   -15.8260    16.8250 cc         1 A1A      -0.178100
      7 C8           8.3460   -15.9540    17.3510 cd         1 A1A      -0.205200
      8 C10          3.2360   -17.0890    16.9370 c3         1 A1A       0.155300
      9 F1           3.5220   -17.8260    18.0500 f          1 A1A      -0.122500
     10 F            3.8610   -17.7110    15.8980 f          1 A1A      -0.122500
     11 C3           3.7650   -15.6710    17.0880 c3         1 A1A       0.182500
     12 C1           3.1520   -14.9190    18.2800 c3         1 A1A      -0.070700
     13 C2           1.6250   -14.9310    18.2390 c3         1 A1A      -0.090600
     14 C            3.6590   -13.4800    18.3020 c3         1 A1A      -0.090600
     15 N            5.2030   -15.7020    17.1750 nu         1 A1A      -0.924100
     16 C9           7.4440   -15.5050    16.3400 ca         1 A1A      -0.257800
     17 N2           7.7370   -14.6480    14.0780 nb         1 A1A      -0.228000
     18 H1          10.2950   -15.1380    14.9430 hn         1 A1A       0.362000
     19 H10          5.9710   -14.1970    13.1530 h5         1 A1A       0.043100
     20 H11         10.5570   -16.0560    17.2590 h4         1 A1A       0.217000
     21 H12          8.1100   -16.3240    18.3360 ha         1 A1A       0.203000
     22 H13          2.1610   -17.1350    16.7590 h2         1 A1A       0.064700
     23 H            3.4950   -15.1390    16.1720 h1         1 A1A       0.109700
     24 H5           3.4760   -15.4120    19.2030 hc         1 A1A       0.055700
     25 H6           1.2010   -15.9250    18.3780 hc         1 A1A       0.039867
     26 H7           1.2270   -14.3030    19.0370 hc         1 A1A       0.039867
     27 H8           1.2540   -14.5330    17.2920 hc         1 A1A       0.039867
     28 H2           4.7450   -13.4250    18.3720 hc         1 A1A       0.039867
     29 H3           3.3520   -12.9460    17.4000 hc         1 A1A       0.039867
     30 H4           3.2470   -12.9470    19.1600 hc         1 A1A       0.039867
     31 H9           5.6040   -16.0310    18.0400 hn         1 A1A       0.503000
@<TRIPOS>BOND
     1     1     3 ar  
     2     1     4 ar  
     3     2     5 1   
     4     2     6 1   
     5     2    18 1   
     6     3    15 1   
     7     3    16 ar  
     8     4    17 ar  
     9     4    19 1   
    10     5    16 ar  
    11     5    17 ar  
    12     6     7 2   
    13     6    20 1   
    14     7    16 1   
    15     7    21 1   
    16     8     9 1   
    17     8    10 1   
    18     8    11 1   
    19     8    22 1   
    20    11    12 1   
    21    11    15 1   
    22    11    23 1   
    23    12    13 1   
    24    12    14 1   
    25    12    24 1   
    26    13    25 1   
    27    13    26 1   
    28    13    27 1   
    29    14    28 1   
    30    14    29 1   
    31    14    30 1   
    32    15    31 1   
@<TRIPOS>SUBSTRUCTURE
     1 A1A         1 TEMP              0 ****  ****    0 ROOT
