@<TRIPOS>MOLECULE
A1A
   46    48     1     0     0
SMALL
abcg2


@<TRIPOS>ATOM
      1 N1           4.3330   -14.6250    16.4490 nb         1 A1A      -0.296000
      2 N3           8.1690   -15.9800    16.1420 nv         1 A1A      -1.058900
      3 C4           4.6680   -15.7070    17.1680 ca         1 A1A       0.431900
      4 C5           5.2820   -14.0870    15.7090 ca         1 A1A       0.202900
      5 C6           6.9030   -15.5550    16.2910 ca         1 A1A       0.419900
      6 C7           5.9760   -16.2040    17.1060 ca         1 A1A      -0.158000
      7 C8           2.3220   -14.5810    18.9790 ca         1 A1A      -0.109300
      8 C10          1.7670   -12.2640    19.3860 ca         1 A1A      -0.131000
      9 C13          2.7810   -14.6720    20.2830 ca         1 A1A      -0.005000
     10 C15          3.1420   -11.1030    22.7330 c6         1 A1A      -0.054400
     11 S            3.4080   -13.7990    22.7480 sy         1 A1A       1.048500
     12 O            4.8650   -13.8220    22.6140 o          1 A1A      -0.522500
     13 C14          2.9380   -12.3180    23.6200 c6         1 A1A      -0.306400
     14 C16          2.1570   -11.1090    21.5750 c6         1 A1A      -0.050100
     15 C11          2.2320   -12.3310    20.6980 ca         1 A1A       0.011700
     16 C9           1.8130   -13.3610    18.5440 ca         1 A1A      -0.030000
     17 C12          2.7270   -13.5630    21.1230 ca         1 A1A      -0.244500
     18 C3           2.3710   -15.7720    18.0440 c3         1 A1A       0.291800
     19 C1           1.4200   -16.9030    18.4680 c3         1 A1A      -0.070700
     20 C2           1.4350   -18.0340    17.4440 c3         1 A1A      -0.088600
     21 C            0.0010   -16.3740    18.6470 c3         1 A1A      -0.088600
     22 N            3.7180   -16.2880    17.9180 nu         1 A1A      -0.921100
     23 CL           6.4300   -17.6110    18.0110 cl         1 A1A      -0.204000
     24 N2           6.5350   -14.4720    15.5840 nb         1 A1A      -0.292000
     25 H10          8.8150   -15.3640    15.6780 hn         1 A1A       0.494500
     26 H11          8.5680   -16.6450    16.7820 hn         1 A1A       0.494500
     27 H9           4.9940   -13.2130    15.1320 h5         1 A1A       0.043100
     28 H13          1.3770   -11.3230    19.0160 ha         1 A1A       0.116000
     29 H14          3.1840   -15.6110    20.6470 ha         1 A1A       0.127000
     30 H17          2.9940   -10.2070    23.3360 hc         1 A1A       0.064700
     31 H18          4.1710   -11.0670    22.3680 hc         1 A1A       0.064700
     32 H16          1.8930   -12.4280    23.9170 h1         1 A1A       0.107200
     33 H15          3.5590   -12.3040    24.5180 h1         1 A1A       0.107200
     34 H19          1.1400   -11.0290    21.9740 hc         1 A1A       0.064200
     35 H20          2.3080   -10.2240    20.9550 hc         1 A1A       0.064200
     36 H12          1.4540   -13.2680    17.5270 ha         1 A1A       0.124000
     37 H            2.0500   -15.4280    17.0570 h1         1 A1A       0.083700
     38 H4           1.7630   -17.3000    19.4330 hc         1 A1A       0.051700
     39 H5           2.4180   -18.4920    17.3370 hc         1 A1A       0.038867
     40 H7           0.7390   -18.8210    17.7370 hc         1 A1A       0.038867
     41 H6           1.1290   -17.6680    16.4620 hc         1 A1A       0.038867
     42 H1          -0.0740   -15.6490    19.4560 hc         1 A1A       0.038867
     43 H2          -0.3520   -15.8920    17.7320 hc         1 A1A       0.038867
     44 H3          -0.6820   -17.1920    18.8770 hc         1 A1A       0.038867
     45 H8           3.9860   -17.0490    18.5210 hn         1 A1A       0.505000
     46 O1           2.7660   -14.9560    23.3680 o          1 A1A      -0.522500
@<TRIPOS>BOND
     1     1     3 ar  
     2     1     4 ar  
     3     2     5 1   
     4     2    25 1   
     5     2    26 1   
     6     3     6 ar  
     7     3    22 1   
     8     4    24 ar  
     9     4    27 1   
    10     5     6 ar  
    11     5    24 ar  
    12     6    23 1   
    13     7     9 ar  
    14     7    16 ar  
    15     7    18 1   
    16     8    15 ar  
    17     8    16 ar  
    18     8    28 1   
    19     9    17 ar  
    20     9    29 1   
    21    10    13 1   
    22    10    14 1   
    23    10    30 1   
    24    10    31 1   
    25    11    12 2   
    26    11    13 1   
    27    11    17 1   
    28    11    46 2   
    29    13    32 1   
    30    13    33 1   
    31    14    15 1   
    32    14    34 1   
    33    14    35 1   
    34    15    17 ar  
    35    16    36 1   
    36    18    19 1   
    37    18    22 1   
    38    18    37 1   
    39    19    20 1   
    40    19    21 1   
    41    19    38 1   
    42    20    39 1   
    43    20    40 1   
    44    20    41 1   
    45    21    42 1   
    46    21    43 1   
    47    21    44 1   
    48    22    45 1   
@<TRIPOS>SUBSTRUCTURE
     1 A1A         1 TEMP              0 ****  ****    0 ROOT
