@<TRIPOS>MOLECULE
A1A
   38    40     1     0     0
SMALL
No Charge or Current Charge


@<TRIPOS>ATOM
      1 N1           5.9980   -13.7470    15.7910 nb         1 A1A      -0.304000
      2 N3           9.8210   -15.2750    15.6720 na         1 A1A      -0.317400
      3 C4           6.3750   -14.8720    16.4310 ca         1 A1A       0.440900
      4 C5           6.9590   -13.1080    15.0800 ca         1 A1A       0.177900
      5 C6           8.6070   -14.6090    15.5890 ca         1 A1A       0.146500
      6 C7           9.7220   -16.4350    16.4740 cc         1 A1A      -0.182100
      7 C8           8.4000   -16.4530    16.8800 cd         1 A1A      -0.205200
      8 C10          4.3250   -14.0020    18.6190 cc         1 A1A      -0.231300
      9 C13          3.9880   -12.6820    18.5590 cd         1 A1A      -0.140000
     10 N5           4.4180   -12.1430    19.7760 na         1 A1A       0.129800
     11 N4           5.0150   -13.0870    20.5990 nd         1 A1A      -0.527800
     12 C11          4.9400   -14.1810    19.8680 cc         1 A1A       0.245900
     13 C3           4.1140   -15.0910    17.6010 c3         1 A1A       0.325800
     14 C1           3.2440   -16.2730    18.1300 c3         1 A1A      -0.066700
     15 C2           1.8960   -15.7860    18.7200 c3         1 A1A      -0.086100
     16 C            2.9880   -17.3500    17.0440 c3         1 A1A      -0.086100
     17 N            5.4340   -15.5670    17.1740 nu         1 A1A      -0.913100
     18 C9           7.6980   -15.3170    16.3310 ca         1 A1A      -0.262800
     19 N2           8.2560   -13.4820    14.9440 nb         1 A1A      -0.234000
     20 H1          10.6670   -14.9570    15.2080 hn         1 A1A       0.360000
     21 H10          6.6590   -12.1980    14.5620 h5         1 A1A       0.039100
     22 H11         10.5530   -17.1090    16.6760 h4         1 A1A       0.215000
     23 H12          7.9670   -17.2200    17.5210 ha         1 A1A       0.201000
     24 H17          3.5000   -12.0990    17.7860 h4         1 A1A       0.160000
     25 H16          3.6880   -10.6970    21.1220 h1         1 A1A       0.057033
     26 H15          5.2820   -10.3250    20.3970 h1         1 A1A       0.057033
     27 H14          3.7940   -10.1600    19.4190 h1         1 A1A       0.057033
     28 H13          5.3420   -15.1010    20.2720 h4         1 A1A       0.033100
     29 H            3.5850   -14.6560    16.7390 h1         1 A1A       0.085700
     30 H5           3.7930   -16.7580    18.9470 hc         1 A1A       0.043700
     31 H6           2.0530   -15.1150    19.5730 hc         1 A1A       0.036700
     32 H7           1.3110   -15.2490    17.9630 hc         1 A1A       0.036700
     33 H8           1.2990   -16.6350    19.0750 hc         1 A1A       0.036700
     34 H2           3.9270   -17.7870    16.6850 hc         1 A1A       0.036700
     35 H4           2.3760   -18.1680    17.4450 hc         1 A1A       0.036700
     36 H3           2.4600   -16.9190    16.1850 hc         1 A1A       0.036700
     37 H9           5.7850   -16.4070    17.6210 hn         1 A1A       0.490000
     38 C12          4.2870   -10.7440    20.2050 c3         1 A1A       0.069900
@<TRIPOS>BOND
     1     1     3 ar  
     2     1     4 ar  
     3     2     5 1   
     4     2     6 1   
     5     2    20 1   
     6     3    17 1   
     7     3    18 ar  
     8     4    19 ar  
     9     4    21 1   
    10     5    18 ar  
    11     5    19 ar  
    12     6     7 2   
    13     6    22 1   
    14     7    18 1   
    15     7    23 1   
    16     8     9 2   
    17     8    12 1   
    18     8    13 1   
    19     9    10 1   
    20     9    24 1   
    21    10    11 1   
    22    10    38 1   
    23    11    12 2   
    24    12    28 1   
    25    13    14 1   
    26    13    17 1   
    27    13    29 1   
    28    14    15 1   
    29    14    16 1   
    30    14    30 1   
    31    15    31 1   
    32    15    32 1   
    33    15    33 1   
    34    16    34 1   
    35    16    35 1   
    36    16    36 1   
    37    17    37 1   
    38    25    38 1   
    39    26    38 1   
    40    27    38 1   
@<TRIPOS>SUBSTRUCTURE
     1 A1A         1 TEMP              0 ****  ****    0 ROOT
