@<TRIPOS>MOLECULE
A1A
   57    61     1     0     0
SMALL
No Charge or Current Charge


@<TRIPOS>ATOM
      1 N1          11.1780   -17.1280    18.7450 nc         1 A1A      -0.492800
      2 N3           3.4310   -14.7440    20.2540 nb         1 A1A      -0.684000
      3 C4           6.4750   -16.4000    18.0420 cc         1 A1A      -0.170200
      4 C5           5.6810   -16.0790    16.8890 ca         1 A1A      -0.258800
      5 C6           4.3070   -15.8670    16.7410 ca         1 A1A       0.438900
      6 C7           2.2920   -15.0580    18.0560 c3         1 A1A       0.197200
      7 C8           2.6320   -14.1940    19.2940 ca         1 A1A       0.339300
      8 C10          2.5080   -12.0750    20.4910 ca         1 A1A      -0.077000
      9 C13          4.5930   -13.9290    23.5850 c6         1 A1A       0.120600
     10 C15          0.9500   -15.8800    18.1720 c3         1 A1A      -0.046000
     11 C17         -0.2460   -14.9130    18.3990 c3         1 A1A      -0.085433
     12 C20          6.5080   -15.9780    15.7970 ca         1 A1A       0.154500
     13 C21          9.0510   -17.0540    19.6960 cc         1 A1A      -0.083000
     14 C22          8.0570   -17.1420    20.7120 cg         1 A1A       0.343000
     15 N7           7.2650   -17.2300    21.5640 n1         1 A1A      -0.427000
     16 N           10.4180   -17.2610    19.8950 na         1 A1A       0.163800
     17 C           11.0790   -17.5940    21.1680 c3         1 A1A       0.065900
     18 C2           8.9660   -16.7790    18.3530 cd         1 A1A      -0.080800
     19 C1          10.2750   -16.8370    17.8280 cd         1 A1A       0.232900
     20 C3           7.7800   -16.4810    17.5790 cd         1 A1A      -0.005300
     21 N6           7.8130   -16.2210    16.1910 na         1 A1A      -0.310400
     22 N5           6.0160   -15.6750    14.5810 nb         1 A1A      -0.235000
     23 C19          4.6760   -15.4800    14.5140 ca         1 A1A       0.182900
     24 N4           3.7930   -15.5560    15.5380 nb         1 A1A      -0.306000
     25 N2           3.4520   -15.9320    17.8250 nu         1 A1A      -0.895100
     26 C16          0.6860   -16.6520    16.8470 c3         1 A1A      -0.085433
     27 C12          3.7570   -13.9900    21.3220 ca         1 A1A       0.525300
     28 O            4.5410   -14.5760    22.2930 os         1 A1A      -0.435300
     29 C14          4.7580   -12.4020    23.4080 c6         1 A1A       0.114600
     30 O1           3.6940   -11.8860    22.5780 os         1 A1A      -0.322100
     31 C11          3.3250   -12.6420    21.4780 ca         1 A1A       0.007100
     32 C9           2.1660   -12.8650    19.3810 ca         1 A1A      -0.148000
     33 H6           6.1220   -16.5450    19.0570 ha         1 A1A       0.209000
     34 H            2.1780   -14.3640    17.2110 h1         1 A1A       0.093700
     35 H9           2.1600   -11.0480    20.5780 ha         1 A1A       0.133000
     36 H11          3.6600   -14.1350    24.1290 h1         1 A1A       0.071200
     37 H10          5.4280   -14.3430    24.1670 h1         1 A1A       0.071200
     38 H17         -1.1980   -15.4590    18.3940 hc         1 A1A       0.037811
     39 H18         -0.1700   -14.4010    19.3650 hc         1 A1A       0.037811
     40 H19         -0.2930   -14.1520    17.6100 hc         1 A1A       0.037811
     41 H3          12.1610   -17.6910    21.0170 h1         1 A1A       0.067367
     42 H4          10.8870   -16.7990    21.8980 h1         1 A1A       0.067367
     43 H2          10.6820   -18.5430    21.5480 h1         1 A1A       0.067367
     44 H5          10.5950   -16.6750    16.8060 h4         1 A1A       0.044100
     45 H1           8.6290   -16.2120    15.5910 hn         1 A1A       0.361000
     46 H23          4.2680   -15.2320    13.5350 h5         1 A1A       0.042100
     47 H7           3.9620   -15.9820    18.7080 hn         1 A1A       0.505000
     48 H21          0.0520   -17.4660    19.4010 hc         1 A1A       0.037811
     49 H22          1.8070   -17.6170    19.2290 hc         1 A1A       0.037811
     50 H20          1.1190   -16.3890    20.3120 hc         1 A1A       0.037811
     51 H14         -0.2760   -17.1770    16.8820 hc         1 A1A       0.037811
     52 H16          0.6650   -15.9670    15.9910 hc         1 A1A       0.037811
     53 H15          1.4640   -17.4030    16.6600 hc         1 A1A       0.037811
     54 H12          4.7420   -11.8920    24.3820 h1         1 A1A       0.070700
     55 H13          5.7230   -12.1910    22.9250 h1         1 A1A       0.070700
     56 H8           1.5460   -12.4500    18.5900 ha         1 A1A       0.132000
     57 C18          0.9880   -16.8970    19.3490 c3         1 A1A      -0.085433
@<TRIPOS>BOND
     1     1    16 1   
     2     1    19 2   
     3     2     7 ar  
     4     2    27 ar  
     5     3     4 1   
     6     3    20 2   
     7     3    33 1   
     8     4     5 ar  
     9     4    12 ar  
    10     5    24 ar  
    11     5    25 1   
    12     6     7 1   
    13     6    10 1   
    14     6    25 1   
    15     6    34 1   
    16     7    32 ar  
    17     8    31 ar  
    18     8    32 ar  
    19     8    35 1   
    20     9    28 1   
    21     9    29 1   
    22     9    36 1   
    23     9    37 1   
    24    10    11 1   
    25    10    26 1   
    26    10    57 1   
    27    11    38 1   
    28    11    39 1   
    29    11    40 1   
    30    12    21 1   
    31    12    22 ar  
    32    13    14 1   
    33    13    16 1   
    34    13    18 2   
    35    14    15 3   
    36    16    17 1   
    37    17    41 1   
    38    17    42 1   
    39    17    43 1   
    40    18    19 1   
    41    18    20 1   
    42    19    44 1   
    43    20    21 1   
    44    21    45 1   
    45    22    23 ar  
    46    23    24 ar  
    47    23    46 1   
    48    25    47 1   
    49    26    51 1   
    50    26    52 1   
    51    26    53 1   
    52    27    28 1   
    53    27    31 ar  
    54    29    30 1   
    55    29    54 1   
    56    29    55 1   
    57    30    31 1   
    58    32    56 1   
    59    48    57 1   
    60    49    57 1   
    61    50    57 1   
@<TRIPOS>SUBSTRUCTURE
     1 A1A         1 TEMP              0 ****  ****    0 ROOT
