@<TRIPOS>MOLECULE
A1A
   46    49     1     0     0
SMALL
abcg2


@<TRIPOS>ATOM
      1 N1           5.8500   -14.6530    15.7840 nb         1 A1A      -0.213000
      2 N3           9.6400   -15.8830    15.5300 na         1 A1A      -0.322400
      3 C4           3.4630   -14.1580    19.9850 ca         1 A1A      -0.150300
      4 C5           3.3620   -15.2870    18.9880 c3         1 A1A       0.176000
      5 C6           5.5850   -15.5730    18.0080 c          1 A1A       0.510600
      6 C7           6.4180   -15.3090    16.7880 ca         1 A1A       0.111500
      7 C8           6.5630   -14.4070    14.6890 ca         1 A1A       0.137900
      8 C10          9.8320   -16.5020    16.7380 cc         1 A1A      -0.158100
      9 C13          1.9470   -15.3990    18.3850 c3         1 A1A      -0.106000
     10 C15          1.9110   -16.4960    17.3790 cc         1 A1A       0.399800
     11 C17          3.4900   -11.7950    20.4880 ca         1 A1A      -0.173000
     12 O1           6.0560   -16.1370    18.9830 o          1 A1A      -0.597100
     13 C12          7.7380   -15.7360    16.7020 ca         1 A1A      -0.141800
     14 C11          8.6970   -16.4380    17.4910 cd         1 A1A      -0.191200
     15 C9           8.3770   -15.4080    15.4770 ca         1 A1A       0.116500
     16 N2           7.8200   -14.7550    14.4730 nb         1 A1A      -0.177000
     17 N            4.3180   -15.1530    17.9100 ns         1 A1A      -0.491900
     18 N7           2.0950   -17.7950    17.6280 na         1 A1A      -0.212700
     19 N6           1.9920   -18.4740    16.4980 nc         1 A1A      -0.201800
     20 N5           1.7500   -17.6190    15.5870 nd         1 A1A      -0.042000
     21 N4           1.6920   -16.3840    16.0910 nd         1 A1A      -0.390000
     22 C14          0.8800   -15.5960    19.4580 c3         1 A1A      -0.089100
     23 C3           3.5820   -14.4190    21.3410 ca         1 A1A      -0.054000
     24 C2           3.6500   -13.3940    22.2790 ca         1 A1A      -0.173000
     25 C16          3.4210   -12.8260    19.5730 ca         1 A1A      -0.054000
     26 C1           3.6030   -12.0700    21.8550 ca         1 A1A       0.150100
     27 O            3.6600   -11.0030    22.6730 os         1 A1A      -0.339100
     28 C            3.7560   -11.2250    24.0650 c3         1 A1A       0.147900
     29 H1          10.3290   -15.7990    14.7980 hn         1 A1A       0.367000
     30 H            3.5830   -16.2210    19.5110 h1         1 A1A       0.068700
     31 H10          6.0600   -13.8680    13.8950 h5         1 A1A       0.055100
     32 H11         10.7840   -16.9490    16.9730 h4         1 A1A       0.220000
     33 H2           1.7280   -14.4770    17.8380 hc         1 A1A       0.093700
     34 H12          8.5720   -16.8430    18.4790 ha         1 A1A       0.232000
     35 H9           4.0670   -14.6450    17.0720 hn         1 A1A       0.353500
     36 H3           2.2920   -18.2680    18.5000 hn         1 A1A       0.387000
     37 H15         -0.1010   -15.7300    19.0040 hc         1 A1A       0.048700
     38 H13          1.0900   -16.4670    20.0810 hc         1 A1A       0.048700
     39 H14          0.8300   -14.7240    20.1070 hc         1 A1A       0.048700
     40 H8           3.6190   -15.4450    21.6880 ha         1 A1A       0.114500
     41 H7           3.7450   -13.6510    23.3250 ha         1 A1A       0.125000
     42 H16          3.3340   -12.5830    18.5200 ha         1 A1A       0.114500
     43 H4           3.7720   -10.2440    24.5340 h1         1 A1A       0.042367
     44 H6           2.8990   -11.7840    24.4500 h1         1 A1A       0.042367
     45 H5           4.6730   -11.7570    24.3330 h1         1 A1A       0.042367
     46 H17          3.4560   -10.7650    20.1540 ha         1 A1A       0.125000
@<TRIPOS>BOND
     1     1     6 ar  
     2     1     7 ar  
     3     2     8 1   
     4     2    15 1   
     5     2    29 1   
     6     3     4 1   
     7     3    23 ar  
     8     3    25 ar  
     9     4     9 1   
    10     4    17 1   
    11     4    30 1   
    12     5     6 1   
    13     5    12 2   
    14     5    17 1   
    15     6    13 ar  
    16     7    16 ar  
    17     7    31 1   
    18     8    14 2   
    19     8    32 1   
    20     9    10 1   
    21     9    22 1   
    22     9    33 1   
    23    10    18 1   
    24    10    21 2   
    25    11    25 ar  
    26    11    26 ar  
    27    11    46 1   
    28    13    14 1   
    29    13    15 ar  
    30    14    34 1   
    31    15    16 ar  
    32    17    35 1   
    33    18    19 1   
    34    18    36 1   
    35    19    20 2   
    36    20    21 1   
    37    22    37 1   
    38    22    38 1   
    39    22    39 1   
    40    23    24 ar  
    41    23    40 1   
    42    24    26 ar  
    43    24    41 1   
    44    25    42 1   
    45    26    27 1   
    46    27    28 1   
    47    28    43 1   
    48    28    44 1   
    49    28    45 1   
@<TRIPOS>SUBSTRUCTURE
     1 A1A         1 TEMP              0 ****  ****    0 ROOT
