@<TRIPOS>MOLECULE
A1A
   39    41     1     0     0
SMALL
abcg2


@<TRIPOS>ATOM
      1 N1           5.2480   -14.9810    15.6250 nb         1 A1A      -0.302000
      2 N3           9.1230   -15.9890    15.5530 na         1 A1A      -0.318400
      3 C4           5.8100   -15.5660    16.6900 ca         1 A1A       0.442900
      4 C5           6.0000   -14.7410    14.5530 ca         1 A1A       0.179900
      5 C6           7.8330   -15.5930    15.4350 ca         1 A1A       0.149500
      6 C7           9.3140   -16.5500    16.7920 cc         1 A1A      -0.186100
      7 C8           8.1420   -16.5210    17.4900 cd         1 A1A      -0.207200
      8 C10          3.5680   -14.1690    18.8150 c2         1 A1A      -0.678400
      9 C13          3.7040   -12.4640    20.7470 c5         1 A1A       0.158900
     10 C1           2.8920   -16.6250    18.5540 c3         1 A1A      -0.057700
     11 C            3.0170   -17.8390    17.6380 c3         1 A1A      -0.081600
     12 C3           3.6790   -15.4210    18.0010 c3         1 A1A       0.307700
     13 S            3.8860   -14.2680    20.4880 s4         1 A1A       0.046700
     14 C12          3.7980   -11.8250    19.3510 c5         1 A1A      -0.069400
     15 C11          4.2230   -12.9000    18.3430 c5         1 A1A      -0.024200
     16 N            5.0730   -15.8300    17.7720 nu         1 A1A      -0.931100
     17 C9           7.1820   -15.9090    16.6300 ca         1 A1A      -0.272800
     18 N2           7.2770   -15.0050    14.3680 nb         1 A1A      -0.242000
     19 H            9.8310   -15.8890    14.8430 hn         1 A1A       0.359000
     20 H10          5.4860   -14.2620    13.7250 h5         1 A1A       0.040100
     21 H11         10.2820   -16.9280    17.0780 h4         1 A1A       0.214000
     22 H12          7.9950   -16.8930    18.4910 ha         1 A1A       0.197000
     23 H16          4.4940   -12.1550    21.4300 h1         1 A1A       0.079200
     24 H15          2.7420   -12.3000    21.2260 h1         1 A1A       0.079200
     25 H7           1.2850   -15.4670    19.4720 hc         1 A1A       0.035533
     26 H5           0.9640   -15.9690    17.8160 hc         1 A1A       0.035533
     27 H6           0.8710   -17.1470    19.1230 hc         1 A1A       0.035533
     28 H4           3.3190   -16.8950    19.5290 hc         1 A1A       0.022700
     29 H1           4.0480   -18.1690    17.5230 hc         1 A1A       0.035533
     30 H3           2.4450   -18.6780    18.0350 hc         1 A1A       0.035533
     31 H2           2.6240   -17.6150    16.6420 hc         1 A1A       0.035533
     32 H8           3.2730   -15.1950    17.0110 h1         1 A1A       0.102700
     33 H17          4.4940   -10.9850    19.3740 hc         1 A1A       0.053700
     34 H14          2.8200   -11.4330    19.0740 hc         1 A1A       0.053700
     35 H18          5.3260   -12.9580    18.3130 hc         1 A1A       0.049200
     36 H13          3.9000   -12.6390    17.3320 hc         1 A1A       0.049200
     37 H9           5.5560   -16.2290    18.5630 hn         1 A1A       0.473000
     38 H19          5.2440   -14.2480    20.7860 hs         1 A1A       0.182000
     39 C2           1.4220   -16.2780    18.7590 c3         1 A1A      -0.081600
@<TRIPOS>BOND
     1     1     3 ar  
     2     1     4 ar  
     3     2     5 1   
     4     2     6 1   
     5     2    19 1   
     6     3    16 1   
     7     3    17 ar  
     8     4    18 ar  
     9     4    20 1   
    10     5    17 ar  
    11     5    18 ar  
    12     6     7 2   
    13     6    21 1   
    14     7    17 1   
    15     7    22 1   
    16     8    12 1   
    17     8    13 2   
    18     8    15 1   
    19     9    13 1   
    20     9    14 1   
    21     9    23 1   
    22     9    24 1   
    23    10    11 1   
    24    10    12 1   
    25    10    28 1   
    26    10    39 1   
    27    11    29 1   
    28    11    30 1   
    29    11    31 1   
    30    12    16 1   
    31    12    32 1   
    32    13    38 1   
    33    14    15 1   
    34    14    33 1   
    35    14    34 1   
    36    15    35 1   
    37    15    36 1   
    38    16    37 1   
    39    25    39 1   
    40    26    39 1   
    41    27    39 1   
@<TRIPOS>SUBSTRUCTURE
     1 A1A         1 TEMP              0 ****  ****    0 ROOT
