@<TRIPOS>MOLECULE
A1A
   55    58     1     0     0
SMALL
No Charge or Current Charge


@<TRIPOS>ATOM
      1 N1           3.6980   -16.3280    17.5660 nu         1 A1A      -0.915100
      2 N3           6.5060   -14.1380    15.4350 nb         1 A1A      -0.235000
      3 C4           5.9840   -15.9850    16.8170 ca         1 A1A      -0.274800
      4 C5           4.6390   -15.5990    16.8550 ca         1 A1A       0.442900
      5 C6           2.3200   -15.9290    17.8890 c3         1 A1A       0.288800
      6 C7           2.3570   -14.7320    18.8440 ca         1 A1A      -0.112300
      7 C8           1.7810   -13.5080    18.4600 ca         1 A1A      -0.029000
      8 C10          2.4110   -12.4990    20.5990 ca         1 A1A       0.014700
      9 C13          3.3080   -12.4840    23.5280 c6         1 A1A      -0.306400
     10 C15          2.3660   -11.2560    21.5060 c6         1 A1A      -0.049100
     11 C20          6.8880   -15.2410    16.1050 ca         1 A1A       0.161500
     12 S            3.7990   -13.9420    22.5860 sy         1 A1A       1.051500
     13 O1           5.2480   -13.8570    22.3610 o          1 A1A      -0.521500
     14 C14          3.4010   -11.2170    22.6530 c6         1 A1A      -0.056400
     15 C9           1.8060   -12.4070    19.3310 ca         1 A1A      -0.131000
     16 C11          2.9910   -13.7320    20.9900 ca         1 A1A      -0.248500
     17 C12          2.9630   -14.8350    20.1120 ca         1 A1A      -0.008000
     18 C16          1.5190   -17.1410    18.4600 c3         1 A1A      -0.070700
     19 C18          1.4120   -18.3080    17.4430 c3         1 A1A      -0.088100
     20 N2           4.2340   -14.5010    16.1890 nb         1 A1A      -0.302000
     21 C19          5.1900   -13.8240    15.5120 ca         1 A1A       0.188900
     22 C3           6.6770   -17.0860    17.4200 cc         1 A1A      -0.120200
     23 N4           8.1440   -15.8160    16.2210 na         1 A1A      -0.310400
     24 C2           8.0100   -16.9730    17.0460 cd         1 A1A      -0.164300
     25 C1           9.0550   -17.9480    17.4850 c          1 A1A       0.635300
     26 O            8.8290   -18.9150    18.2000 o          1 A1A      -0.588100
     27 N           10.3160   -17.6650    17.0100 ns         1 A1A      -0.508900
     28 C           11.5050   -18.4690    17.2990 c3         1 A1A       0.093300
     29 H7           4.0550   -17.1650    18.0170 hn         1 A1A       0.498000
     30 H            1.8130   -15.6170    16.9640 h1         1 A1A       0.084700
     31 H8           1.3090   -13.4070    17.4850 ha         1 A1A       0.123000
     32 H12          2.2790   -12.6670    23.8630 h1         1 A1A       0.106200
     33 H11          3.9790   -12.4410    24.3950 h1         1 A1A       0.106200
     34 H15          1.3570   -11.1750    21.9330 hc         1 A1A       0.063700
     35 H16          2.4960   -10.3550    20.8910 hc         1 A1A       0.063700
     36 H19         -0.4450   -17.6000    19.3210 hc         1 A1A       0.039200
     37 H20          0.1570   -15.9950    19.7530 hc         1 A1A       0.039200
     38 H18         -0.4760   -16.2930    18.1190 hc         1 A1A       0.039200
     39 H13          3.2210   -10.3270    23.2730 hc         1 A1A       0.066200
     40 H14          4.4150   -11.1060    22.2430 hc         1 A1A       0.066200
     41 H9           1.3470   -11.4730    19.0160 ha         1 A1A       0.116000
     42 H10          3.4190   -15.7770    20.4120 ha         1 A1A       0.128000
     43 H17          2.0560   -17.5220    19.3370 hc         1 A1A       0.051700
     44 H21          0.8460   -19.1440    17.8710 hc         1 A1A       0.039200
     45 H23          0.9010   -17.9820    16.5290 hc         1 A1A       0.039200
     46 H22          2.4010   -18.6880    17.1650 hc         1 A1A       0.039200
     47 H24          4.8690   -12.9340    14.9730 h5         1 A1A       0.043100
     48 H6           6.2660   -17.8710    18.0530 ha         1 A1A       0.220000
     49 H1           8.9890   -15.4610    15.7880 hn         1 A1A       0.359000
     50 H5          10.4140   -16.8460    16.4260 hn         1 A1A       0.310500
     51 H4          12.3770   -18.0270    16.8010 h1         1 A1A       0.042700
     52 H2          11.6800   -18.4940    18.3830 h1         1 A1A       0.042700
     53 H3          11.3580   -19.4930    16.9300 h1         1 A1A       0.042700
     54 C17          0.1040   -16.7300    18.9410 c3         1 A1A      -0.088100
     55 O2           3.2250   -15.1270    23.2380 o          1 A1A      -0.521500
@<TRIPOS>BOND
     1     1     4 1   
     2     1     5 1   
     3     1    29 1   
     4     2    11 ar  
     5     2    21 ar  
     6     3     4 ar  
     7     3    11 ar  
     8     3    22 1   
     9     4    20 ar  
    10     5     6 1   
    11     5    18 1   
    12     5    30 1   
    13     6     7 ar  
    14     6    17 ar  
    15     7    15 ar  
    16     7    31 1   
    17     8    10 1   
    18     8    15 ar  
    19     8    16 ar  
    20     9    12 1   
    21     9    14 1   
    22     9    32 1   
    23     9    33 1   
    24    10    14 1   
    25    10    34 1   
    26    10    35 1   
    27    11    23 1   
    28    12    13 2   
    29    12    16 1   
    30    12    55 2   
    31    14    39 1   
    32    14    40 1   
    33    15    41 1   
    34    16    17 ar  
    35    17    42 1   
    36    18    19 1   
    37    18    43 1   
    38    18    54 1   
    39    19    44 1   
    40    19    45 1   
    41    19    46 1   
    42    20    21 ar  
    43    21    47 1   
    44    22    24 2   
    45    22    48 1   
    46    23    24 1   
    47    23    49 1   
    48    24    25 1   
    49    25    26 2   
    50    25    27 1   
    51    27    28 1   
    52    27    50 1   
    53    28    51 1   
    54    28    52 1   
    55    28    53 1   
    56    36    54 1   
    57    37    54 1   
    58    38    54 1   
@<TRIPOS>SUBSTRUCTURE
     1 A1A         1 TEMP              0 ****  ****    0 ROOT
