@<TRIPOS>MOLECULE
A1A
   55    58     1     0     0
SMALL
abcg2


@<TRIPOS>ATOM
      1 N1           3.7230   -16.4020    17.7400 nu         1 A1A      -0.915100
      2 N3           6.4950   -14.3150    15.4880 nb         1 A1A      -0.235000
      3 C4           6.0010   -16.1630    16.9970 ca         1 A1A      -0.274800
      4 C5           4.6510   -15.7460    17.0270 ca         1 A1A       0.442900
      5 C6           2.3780   -15.9030    17.9480 c3         1 A1A       0.288800
      6 C7           2.3830   -14.7040    18.8710 ca         1 A1A      -0.112300
      7 C8           1.7790   -13.5060    18.5030 ca         1 A1A      -0.029000
      8 C10          2.3540   -12.4780    20.6220 ca         1 A1A       0.014700
      9 C13          3.2200   -12.5390    23.4920 c6         1 A1A      -0.306400
     10 C15          2.2650   -11.2840    21.5370 c6         1 A1A      -0.049100
     11 C20          6.8510   -15.3880    16.2000 ca         1 A1A       0.161500
     12 S            3.8200   -13.8970    22.5080 sy         1 A1A       1.051500
     13 O1           5.2470   -13.6910    22.2600 o          1 A1A      -0.521500
     14 C14          3.2770   -11.2590    22.6720 c6         1 A1A      -0.056400
     15 C9           1.7620   -12.4210    19.3610 ca         1 A1A      -0.131000
     16 C11          2.9590   -13.6840    20.9720 ca         1 A1A      -0.248500
     17 C12          2.9790   -14.7810    20.1180 ca         1 A1A      -0.008000
     18 C16          1.4800   -17.0380    18.4680 c3         1 A1A      -0.070700
     19 C18          1.4160   -18.1860    17.4650 c3         1 A1A      -0.088100
     20 N2           4.2870   -14.6760    16.3200 nb         1 A1A      -0.302000
     21 C19          5.2130   -14.0370    15.6030 ca         1 A1A       0.188900
     22 C3           6.7900   -17.1790    17.5930 cc         1 A1A      -0.120200
     23 N4           8.0950   -15.9090    16.2920 na         1 A1A      -0.310400
     24 C2           8.0700   -16.9960    17.1420 cd         1 A1A      -0.164300
     25 C1           9.2300   -17.8340    17.5100 c          1 A1A       0.635300
     26 O            9.1390   -18.6290    18.4360 o          1 A1A      -0.588100
     27 N           10.3590   -17.6780    16.7990 ns         1 A1A      -0.508900
     28 C           11.5440   -18.4550    17.0810 c3         1 A1A       0.093300
     29 H7           4.0390   -17.1560    18.3300 hn         1 A1A       0.498000
     30 H            1.9810   -15.5840    16.9800 h1         1 A1A       0.084700
     31 H8           1.3140   -13.4230    17.5280 ha         1 A1A       0.123000
     32 H12          2.2030   -12.7780    23.8050 h1         1 A1A       0.106200
     33 H11          3.8630   -12.5060    24.3740 h1         1 A1A       0.106200
     34 H15          1.2570   -11.2600    21.9630 hc         1 A1A       0.063700
     35 H16          2.3610   -10.3750    20.9400 hc         1 A1A       0.063700
     36 H19         -0.5710   -17.3500    19.0670 hc         1 A1A       0.039200
     37 H20          0.0650   -15.7930    19.5780 hc         1 A1A       0.039200
     38 H18         -0.3670   -16.0560    17.8880 hc         1 A1A       0.039200
     39 H13          3.0600   -10.4190    23.3310 hc         1 A1A       0.066200
     40 H14          4.2880   -11.1000    22.2910 hc         1 A1A       0.066200
     41 H9           1.2840   -11.5010    19.0490 ha         1 A1A       0.116000
     42 H10          3.4580   -15.7020    20.4320 ha         1 A1A       0.128000
     43 H17          1.9140   -17.4130    19.4040 hc         1 A1A       0.051700
     44 H21          0.7740   -18.9830    17.8420 hc         1 A1A       0.039200
     45 H23          0.9990   -17.8450    16.5150 hc         1 A1A       0.039200
     46 H22          2.3940   -18.6230    17.2640 hc         1 A1A       0.039200
     47 H24          4.8570   -13.1760    15.0480 h5         1 A1A       0.043100
     48 H6           6.4690   -17.9600    18.2640 ha         1 A1A       0.220000
     49 H1           8.9040   -15.4910    15.8590 hn         1 A1A       0.359000
     50 H5          10.3640   -17.1290    15.9570 hn         1 A1A       0.310500
     51 H4          12.3390   -18.1160    16.4240 h1         1 A1A       0.042700
     52 H2          11.8700   -18.3190    18.1110 h1         1 A1A       0.042700
     53 H3          11.3870   -19.5210    16.9100 h1         1 A1A       0.042700
     54 C17          0.0760   -16.5240    18.7700 c3         1 A1A      -0.088100
     55 O2           3.4150   -15.1740    23.0930 o          1 A1A      -0.521500
@<TRIPOS>BOND
     1     1     4 1   
     2     1     5 1   
     3     1    29 1   
     4     2    11 ar  
     5     2    21 ar  
     6     3     4 ar  
     7     3    11 ar  
     8     3    22 1   
     9     4    20 ar  
    10     5     6 1   
    11     5    18 1   
    12     5    30 1   
    13     6     7 ar  
    14     6    17 ar  
    15     7    15 ar  
    16     7    31 1   
    17     8    10 1   
    18     8    15 ar  
    19     8    16 ar  
    20     9    12 1   
    21     9    14 1   
    22     9    32 1   
    23     9    33 1   
    24    10    14 1   
    25    10    34 1   
    26    10    35 1   
    27    11    23 1   
    28    12    13 2   
    29    12    16 1   
    30    12    55 2   
    31    14    39 1   
    32    14    40 1   
    33    15    41 1   
    34    16    17 ar  
    35    17    42 1   
    36    18    19 1   
    37    18    43 1   
    38    18    54 1   
    39    19    44 1   
    40    19    45 1   
    41    19    46 1   
    42    20    21 ar  
    43    21    47 1   
    44    22    24 2   
    45    22    48 1   
    46    23    24 1   
    47    23    49 1   
    48    24    25 1   
    49    25    26 2   
    50    25    27 1   
    51    27    28 1   
    52    27    50 1   
    53    28    51 1   
    54    28    52 1   
    55    28    53 1   
    56    36    54 1   
    57    37    54 1   
    58    38    54 1   
@<TRIPOS>SUBSTRUCTURE
     1 A1A         1 TEMP              0 ****  ****    0 ROOT
