@<TRIPOS>MOLECULE
A1A
   39    41     1     0     0
SMALL
No Charge or Current Charge


@<TRIPOS>ATOM
      1 N1           5.2490   -16.0770    15.3320 nb         1 A1A      -0.302000
      2 N3           9.3620   -16.1720    15.5450 na         1 A1A      -0.318400
      3 C4           5.9430   -15.9260    16.4790 ca         1 A1A       0.442900
      4 C5           5.9800   -16.2760    14.2070 ca         1 A1A       0.179900
      5 C6           8.0020   -16.1750    15.2680 ca         1 A1A       0.149500
      6 C7           9.6110   -15.9650    16.9210 cc         1 A1A      -0.186100
      7 C8           8.3500   -15.8410    17.4770 cd         1 A1A      -0.207200
      8 C10          4.2550   -14.1820    18.8890 c2         1 A1A      -0.678400
      9 C13          3.7910   -12.9860    21.2550 c5         1 A1A       0.158900
     10 C1           2.8800   -16.2780    18.1970 c3         1 A1A      -0.057700
     11 C            2.6860   -17.3320    17.0790 c3         1 A1A      -0.081600
     12 C3           3.9310   -15.1840    17.8120 c3         1 A1A       0.307700
     13 S            4.3080   -14.7240    20.7750 s4         1 A1A       0.046700
     14 C12          3.1000   -12.3350    20.0070 c5         1 A1A      -0.069400
     15 C11          3.9990   -12.6920    18.7770 c5         1 A1A      -0.024200
     16 N            5.2590   -15.7050    17.6630 nu         1 A1A      -0.931100
     17 C9           7.3430   -15.9710    16.4520 ca         1 A1A      -0.272800
     18 N2           7.3310   -16.3340    14.1130 nb         1 A1A      -0.242000
     19 H           10.0770   -16.3040    14.8360 hn         1 A1A       0.359000
     20 H10          5.4220   -16.4010    13.2800 h5         1 A1A       0.040100
     21 H11         10.6060   -15.9260    17.3620 h4         1 A1A       0.214000
     22 H12          8.1590   -15.6720    18.5360 ha         1 A1A       0.197000
     23 H16          4.7000   -12.4420    21.5390 h1         1 A1A       0.079200
     24 H15          3.1280   -13.0440    22.1270 h1         1 A1A       0.079200
     25 H7           1.6020   -15.0150    19.4570 hc         1 A1A       0.035533
     26 H5           1.1180   -15.0530    17.7480 hc         1 A1A       0.035533
     27 H6           0.7810   -16.4390    18.8090 hc         1 A1A       0.035533
     28 H4           3.2450   -16.8180    19.0790 hc         1 A1A       0.022700
     29 H1           3.6170   -17.8760    16.8860 hc         1 A1A       0.035533
     30 H3           1.9280   -18.0700    17.3680 hc         1 A1A       0.035533
     31 H2           2.3620   -16.8560    16.1450 hc         1 A1A       0.035533
     32 H8           3.5980   -14.6590    16.9010 h1         1 A1A       0.102700
     33 H17          2.9900   -11.2520    20.1290 hc         1 A1A       0.053700
     34 H14          2.0890   -12.7360    19.8750 hc         1 A1A       0.053700
     35 H18          4.9430   -12.1340    18.7970 hc         1 A1A       0.049200
     36 H13          3.5000   -12.4330    17.8350 hc         1 A1A       0.049200
     37 H9           5.8500   -15.3650    18.4080 hn         1 A1A       0.473000
     38 H19          5.5820   -14.2200    21.0500 hs         1 A1A       0.182000
     39 C2           1.5130   -15.6570    18.5740 c3         1 A1A      -0.081600
@<TRIPOS>BOND
     1     1     3 ar  
     2     1     4 ar  
     3     2     5 1   
     4     2     6 1   
     5     2    19 1   
     6     3    16 1   
     7     3    17 ar  
     8     4    18 ar  
     9     4    20 1   
    10     5    17 ar  
    11     5    18 ar  
    12     6     7 2   
    13     6    21 1   
    14     7    17 1   
    15     7    22 1   
    16     8    12 1   
    17     8    13 2   
    18     8    15 1   
    19     9    13 1   
    20     9    14 1   
    21     9    23 1   
    22     9    24 1   
    23    10    11 1   
    24    10    12 1   
    25    10    28 1   
    26    10    39 1   
    27    11    29 1   
    28    11    30 1   
    29    11    31 1   
    30    12    16 1   
    31    12    32 1   
    32    13    38 1   
    33    14    15 1   
    34    14    33 1   
    35    14    34 1   
    36    15    35 1   
    37    15    36 1   
    38    16    37 1   
    39    25    39 1   
    40    26    39 1   
    41    27    39 1   
@<TRIPOS>SUBSTRUCTURE
     1 A1A         1 TEMP              0 ****  ****    0 ROOT
