@<TRIPOS>MOLECULE
A1A
   18    19     1     0     0
SMALL
No Charge or Current Charge


@<TRIPOS>ATOM
      1 C4          49.4400     3.4470   -21.1200 ca         1 A1A      -0.207000
      2 C5          49.4350     2.4260   -22.0800 ca         1 A1A      -0.009200
      3 C6          49.5180     2.7080   -23.4130 ca         1 A1A      -0.136800
      4 C7          49.4880     1.4610   -24.1130 cc         1 A1A      -0.225200
      5 C8          49.3860     0.4600   -23.1540 cd         1 A1A      -0.176100
      6 C1          49.6120     4.0200   -23.8950 ca         1 A1A      -0.024000
      7 C2          49.6190     5.0660   -22.9460 ca         1 A1A      -0.192000
      8 C3          49.5330     4.7780   -21.5670 ca         1 A1A       0.297000
      9 N9          49.3520     1.0600   -21.8690 na         1 A1A      -0.230700
     10 N10         49.5420     5.7990   -20.6580 nv         1 A1A      -1.062000
     11 H1          49.3720     3.2140   -20.0610 ha         1 A1A       0.112000
     12 H2          49.5350     1.3070   -25.1900 ha         1 A1A       0.202000
     13 H3          49.3350    -0.6190   -23.2870 h4         1 A1A       0.209000
     14 H4          49.6780     4.2260   -24.9610 ha         1 A1A       0.112000
     15 H5          49.6900     6.0950   -23.2860 ha         1 A1A       0.110000
     16 H6          49.2800     0.5860   -20.9740 hn         1 A1A       0.346000
     17 H7          49.6240     5.5900   -19.6650 hn         1 A1A       0.438500
     18 H8          49.7520     6.7470   -20.9610 hn         1 A1A       0.438500
@<TRIPOS>BOND
     1     1     2 ar  
     2     1     8 ar  
     3     1    11 1   
     4     2     3 ar  
     5     2     9 1   
     6     3     4 1   
     7     3     6 ar  
     8     4     5 2   
     9     4    12 1   
    10     5     9 1   
    11     5    13 1   
    12     6     7 ar  
    13     6    14 1   
    14     7     8 ar  
    15     7    15 1   
    16     8    10 1   
    17     9    16 1   
    18    10    17 1   
    19    10    18 1   
@<TRIPOS>SUBSTRUCTURE
     1 A1A         1 TEMP              0 ****  ****    0 ROOT
