@<TRIPOS>MOLECULE
A1A
   38    40     1     0     0
SMALL
abcg2


@<TRIPOS>ATOM
      1 N1           6.0140   -13.9090    15.8730 nb         1 A1A      -0.304000
      2 N3           9.7110   -15.3780    15.4190 na         1 A1A      -0.317400
      3 C4           6.4080   -14.9730    16.5770 ca         1 A1A       0.440900
      4 C5           6.8710   -13.3570    15.0140 ca         1 A1A       0.177900
      5 C6           8.4980   -14.7770    15.4650 ca         1 A1A       0.146500
      6 C7           9.7270   -16.4330    16.2970 cc         1 A1A      -0.182100
      7 C8           8.5190   -16.5250    16.9230 cd         1 A1A      -0.205200
      8 C10          4.3150   -14.0050    18.8260 cc         1 A1A      -0.231300
      9 C13          4.0800   -12.6530    18.7170 cd         1 A1A      -0.140000
     10 N5           4.2960   -12.1120    19.9300 na         1 A1A       0.129800
     11 N4           4.6620   -13.0230    20.8270 nd         1 A1A      -0.527800
     12 C11          4.6780   -14.1710    20.1750 cc         1 A1A       0.245900
     13 C3           4.2300   -15.0420    17.7470 c3         1 A1A       0.325800
     14 C1           3.2890   -16.2040    18.1040 c3         1 A1A      -0.066700
     15 C2           1.8920   -15.6810    18.4220 c3         1 A1A      -0.086100
     16 C            3.2250   -17.2290    16.9750 c3         1 A1A      -0.086100
     17 N            5.5480   -15.5610    17.4220 nu         1 A1A      -0.913100
     18 C9           7.7190   -15.4660    16.3990 ca         1 A1A      -0.262800
     19 N2           8.1090   -13.7150    14.7500 nb         1 A1A      -0.234000
     20 H1          10.4790   -15.0950    14.8320 hn         1 A1A       0.360000
     21 H10          6.4920   -12.4990    14.4680 h5         1 A1A       0.039100
     22 H11         10.6100   -17.0410    16.4040 h4         1 A1A       0.215000
     23 H12          8.2460   -17.2620    17.6620 ha         1 A1A       0.201000
     24 H17          3.7770   -12.0550    17.8720 h4         1 A1A       0.160000
     25 H16          4.4750   -10.6110    21.3320 h1         1 A1A       0.057033
     26 H15          4.7990   -10.0980    19.6700 h1         1 A1A       0.057033
     27 H14          3.1330   -10.3890    20.2000 h1         1 A1A       0.057033
     28 H13          4.9480   -15.0830    20.6880 h4         1 A1A       0.033100
     29 H            3.8420   -14.5650    16.8440 h1         1 A1A       0.085700
     30 H5           3.6830   -16.6990    19.0010 hc         1 A1A       0.043700
     31 H6           1.8870   -15.0090    19.2790 hc         1 A1A       0.036700
     32 H7           1.4780   -15.1390    17.5680 hc         1 A1A       0.036700
     33 H8           1.2180   -16.5080    18.6470 hc         1 A1A       0.036700
     34 H2           4.1900   -17.6970    16.7820 hc         1 A1A       0.036700
     35 H4           2.5190   -18.0230    17.2200 hc         1 A1A       0.036700
     36 H3           2.8900   -16.7610    16.0460 hc         1 A1A       0.036700
     37 H9           5.9080   -16.2960    18.0100 hn         1 A1A       0.490000
     38 C12          4.1650   -10.7220    20.2980 c3         1 A1A       0.069900
@<TRIPOS>BOND
     1     1     3 ar  
     2     1     4 ar  
     3     2     5 1   
     4     2     6 1   
     5     2    20 1   
     6     3    17 1   
     7     3    18 ar  
     8     4    19 ar  
     9     4    21 1   
    10     5    18 ar  
    11     5    19 ar  
    12     6     7 2   
    13     6    22 1   
    14     7    18 1   
    15     7    23 1   
    16     8     9 2   
    17     8    12 1   
    18     8    13 1   
    19     9    10 1   
    20     9    24 1   
    21    10    11 1   
    22    10    38 1   
    23    11    12 2   
    24    12    28 1   
    25    13    14 1   
    26    13    17 1   
    27    13    29 1   
    28    14    15 1   
    29    14    16 1   
    30    14    30 1   
    31    15    31 1   
    32    15    32 1   
    33    15    33 1   
    34    16    34 1   
    35    16    35 1   
    36    16    36 1   
    37    17    37 1   
    38    25    38 1   
    39    26    38 1   
    40    27    38 1   
@<TRIPOS>SUBSTRUCTURE
     1 A1A         1 TEMP              0 ****  ****    0 ROOT
