@<TRIPOS>MOLECULE
A1A
   25    27     1     0     0
SMALL
No Charge or Current Charge


@<TRIPOS>ATOM
      1 C4          25.8220    -8.1740   -38.5990 ca         1 A1A      -0.145000
      2 C5          26.0360    -7.9760   -39.9720 ca         1 A1A       0.287000
      3 C6          26.4970    -9.0330   -40.7680 ca         1 A1A      -0.156000
      4 C8          25.8440    -9.6470   -36.5580 cc         1 A1A       0.608200
      5 C10         25.6960   -10.4640   -34.6170 ca         1 A1A       0.464000
      6 C13         24.8980    -8.5300   -33.3940 ca         1 A1A      -0.048000
      7 C15         25.3170   -10.6930   -32.3590 ca         1 A1A       0.329900
      8 C1          26.7470   -10.2900   -40.1930 ca         1 A1A      -0.081000
      9 C2          26.5330   -10.4890   -38.8180 ca         1 A1A      -0.103000
     10 C3          26.0670    -9.4340   -38.0000 ca         1 A1A      -0.089900
     11 N7          25.7940    -6.7510   -40.5360 nv         1 A1A      -1.077000
     12 N9          26.0470   -10.8020   -35.9000 nd         1 A1A      -0.635700
     13 C11         25.3100    -9.1470   -34.5800 ca         1 A1A      -0.025900
     14 O12         25.3870    -8.5750   -35.8030 os         1 A1A      -0.272700
     15 C14         24.9060    -9.3450   -32.2460 ca         1 A1A      -0.155000
     16 N16         25.7100   -11.2560   -33.5310 nb         1 A1A      -0.600000
     17 H1          25.4620    -7.3430   -37.9980 ha         1 A1A       0.125000
     18 H2          26.6640    -8.8850   -41.8320 ha         1 A1A       0.115000
     19 H3          24.5920    -7.4870   -33.3640 ha         1 A1A       0.138000
     20 H4          25.3300   -11.3410   -31.4840 h4         1 A1A       0.027100
     21 H5          27.1050   -11.1100   -40.8120 ha         1 A1A       0.118000
     22 H6          26.7320   -11.4700   -38.3910 ha         1 A1A       0.143000
     23 H7          25.5920    -5.9480   -39.9430 hn         1 A1A       0.453000
     24 H8          26.0750    -6.5680   -41.4980 hn         1 A1A       0.453000
     25 H9          24.6020    -8.9480   -31.2810 ha         1 A1A       0.128000
@<TRIPOS>BOND
     1     1     2 ar  
     2     1    10 ar  
     3     1    17 1   
     4     2     3 ar  
     5     2    11 1   
     6     3     8 ar  
     7     3    18 1   
     8     4    10 1   
     9     4    12 2   
    10     4    14 1   
    11     5    12 1   
    12     5    13 ar  
    13     5    16 ar  
    14     6    13 ar  
    15     6    15 ar  
    16     6    19 1   
    17     7    15 ar  
    18     7    16 ar  
    19     7    20 1   
    20     8     9 ar  
    21     8    21 1   
    22     9    10 ar  
    23     9    22 1   
    24    11    23 1   
    25    11    24 1   
    26    13    14 1   
    27    15    25 1   
@<TRIPOS>SUBSTRUCTURE
     1 A1A         1 TEMP              0 ****  ****    0 ROOT
