@<TRIPOS>MOLECULE
A1A
   64    68     1     0     0
SMALL
No Charge or Current Charge


@<TRIPOS>ATOM
      1 N1         -10.3120    -7.2310    18.3450 nb         1 A1A      -0.295000
      2 N3         -14.0990    -8.5440    19.3070 na         1 A1A      -0.315400
      3 C4         -10.6420    -8.5330    18.4640 ca         1 A1A       0.432900
      4 C5         -11.3060    -6.3350    18.5580 ca         1 A1A       0.175900
      5 C6         -12.9030    -7.9130    18.9970 ca         1 A1A       0.149500
      6 C7         -13.9320    -9.9360    19.3090 cc         1 A1A       0.028700
      7 C8         -14.9470   -10.9070    19.5840 cc         1 A1A      -0.152800
      8 C13        -20.9490   -12.7020    21.3260 c3         1 A1A       0.083800
      9 C15        -12.6080   -10.1640    18.9940 cd         1 A1A      -0.200200
     10 C17         -8.6080    -8.9770    16.1090 ca         1 A1A      -0.100300
     11 C20         -9.0500    -8.3460    13.3890 ca         1 A1A       0.060100
     12 C21         -9.4400    -9.6090    13.8990 ca         1 A1A       0.053100
     13 C22         -9.2310    -9.9140    15.2530 ca         1 A1A      -0.101000
     14 C24        -10.1960    -8.8490    11.3240 c6         1 A1A       0.118600
     15 O          -17.7880   -11.4840    22.6780 o          1 A1A      -0.569100
     16 C11        -18.6010   -11.9200    21.8690 c          1 A1A       0.584100
     17 N6         -19.9250   -12.2090    22.2790 n          1 A1A      -0.407800
     18 C12        -20.3340   -11.9970    23.6880 c3         1 A1A       0.083800
     19 N5         -16.8240   -11.8960    20.0730 na         1 A1A       0.144800
     20 N4         -15.9240   -12.9400    19.8770 nd         1 A1A      -0.512800
     21 C9         -14.8060   -12.3030    19.5910 cc         1 A1A       0.270900
     22 C14        -16.2440   -10.6340    19.8890 cd         1 A1A      -0.149000
     23 C16        -11.9540    -8.8890    18.7970 ca         1 A1A      -0.253800
     24 N2         -12.5950    -6.6080    18.8810 nb         1 A1A      -0.234000
     25 N           -9.6650    -9.4930    18.2520 nu         1 A1A      -0.915100
     26 C3          -8.3670    -9.3000    17.5880 c3         1 A1A       0.290800
     27 C1          -7.4520   -10.5470    17.8030 c3         1 A1A      -0.068700
     28 C2          -6.1290   -10.4450    17.0010 c3         1 A1A      -0.087600
     29 C           -7.1420   -10.7990    19.3020 c3         1 A1A      -0.087600
     30 O1         -10.0300   -10.5490    13.0770 os         1 A1A      -0.332100
     31 C23         -9.9400   -10.3360    11.6510 c6         1 A1A       0.118600
     32 O2          -9.2770    -8.0170    12.0670 os         1 A1A      -0.330100
     33 C19         -8.4240    -7.4160    14.2330 ca         1 A1A      -0.111000
     34 C18         -8.2060    -7.7290    15.5860 ca         1 A1A      -0.082000
     35 H1         -14.9660    -8.0600    19.5030 hn         1 A1A       0.357000
     36 H10        -11.0420    -5.2830    18.4610 h5         1 A1A       0.041100
     37 H13        -18.8650   -11.5290    19.7720 h1         1 A1A       0.083200
     38 H12        -18.4570   -13.2140    20.1590 h1         1 A1A       0.083200
     39 H17        -21.9200   -12.8160    21.8230 h1         1 A1A       0.044200
     40 H19        -21.0650   -11.9880    20.5000 h1         1 A1A       0.044200
     41 H18        -20.6460   -13.6770    20.9240 h1         1 A1A       0.044200
     42 H21        -12.1470   -11.1450    18.9110 ha         1 A1A       0.200000
     43 H24         -9.5470   -10.8800    15.6360 ha         1 A1A       0.120000
     44 H28        -10.0710    -8.6600    10.2490 h1         1 A1A       0.066700
     45 H27        -11.2250    -8.5840    11.6050 h1         1 A1A       0.066700
     46 H14        -21.3540   -12.3650    23.8600 h1         1 A1A       0.044200
     47 H16        -19.6510   -12.5340    24.3580 h1         1 A1A       0.044200
     48 H15        -20.3000   -10.9260    23.9240 h1         1 A1A       0.044200
     49 H11        -13.9110   -12.8770    19.3890 h4         1 A1A       0.042100
     50 H20        -16.7870    -9.7020    19.9920 h4         1 A1A       0.152000
     51 H9          -9.9870   -10.4500    18.3570 hn         1 A1A       0.491000
     52 H           -7.8520    -8.4440    18.0490 h1         1 A1A       0.086700
     53 H5          -7.9840   -11.4310    17.4290 hc         1 A1A       0.045700
     54 H7          -6.3200   -10.3940    15.9220 hc         1 A1A       0.037867
     55 H6          -5.5640    -9.5520    17.2930 hc         1 A1A       0.037867
     56 H8          -5.4980   -11.3240    17.1810 hc         1 A1A       0.037867
     57 H2          -8.0600   -10.9790    19.8750 hc         1 A1A       0.037867
     58 H3          -6.5000   -11.6800    19.4220 hc         1 A1A       0.037867
     59 H4          -6.6260    -9.9380    19.7430 hc         1 A1A       0.037867
     60 H26         -8.9330   -10.6180    11.3110 h1         1 A1A       0.065200
     61 H25        -10.6700   -10.9780    11.1390 h1         1 A1A       0.065200
     62 H23         -8.1180    -6.4490    13.8410 ha         1 A1A       0.128000
     63 H22         -7.7270    -6.9960    16.2320 ha         1 A1A       0.124000
     64 C10        -18.2320   -12.1690    20.3960 c3         1 A1A       0.000600
@<TRIPOS>BOND
     1     1     3 ar  
     2     1     4 ar  
     3     2     5 1   
     4     2     6 1   
     5     2    35 1   
     6     3    23 ar  
     7     3    25 1   
     8     4    24 ar  
     9     4    36 1   
    10     5    23 ar  
    11     5    24 ar  
    12     6     7 1   
    13     6     9 2   
    14     7    21 1   
    15     7    22 2   
    16     8    17 1   
    17     8    39 1   
    18     8    40 1   
    19     8    41 1   
    20     9    23 1   
    21     9    42 1   
    22    10    13 ar  
    23    10    26 1   
    24    10    34 ar  
    25    11    12 ar  
    26    11    32 1   
    27    11    33 ar  
    28    12    13 ar  
    29    12    30 1   
    30    13    43 1   
    31    14    31 1   
    32    14    32 1   
    33    14    44 1   
    34    14    45 1   
    35    15    16 2   
    36    16    17 1   
    37    16    64 1   
    38    17    18 1   
    39    18    46 1   
    40    18    47 1   
    41    18    48 1   
    42    19    20 1   
    43    19    22 1   
    44    19    64 1   
    45    20    21 2   
    46    21    49 1   
    47    22    50 1   
    48    25    26 1   
    49    25    51 1   
    50    26    27 1   
    51    26    52 1   
    52    27    28 1   
    53    27    29 1   
    54    27    53 1   
    55    28    54 1   
    56    28    55 1   
    57    28    56 1   
    58    29    57 1   
    59    29    58 1   
    60    29    59 1   
    61    30    31 1   
    62    31    60 1   
    63    31    61 1   
    64    33    34 ar  
    65    33    62 1   
    66    34    63 1   
    67    37    64 1   
    68    38    64 1   
@<TRIPOS>SUBSTRUCTURE
     1 A1A         1 TEMP              0 ****  ****    0 ROOT
