@<TRIPOS>MOLECULE
A1A
   46    48     1     0     0
SMALL
No Charge or Current Charge


@<TRIPOS>ATOM
      1 N1           4.3110   -14.5660    16.3150 nb         1 A1A      -0.296000
      2 N3           8.2550   -15.6570    16.5930 nv         1 A1A      -1.058900
      3 C4           4.6230   -15.6460    17.0540 ca         1 A1A       0.431900
      4 C5           5.3380   -13.9250    15.7240 ca         1 A1A       0.202900
      5 C6           6.9330   -15.3390    16.5340 ca         1 A1A       0.419900
      6 C7           5.9490   -16.0880    17.2000 ca         1 A1A      -0.158000
      7 C8           2.2630   -14.6280    18.8490 ca         1 A1A      -0.109300
      8 C10          1.8310   -12.2660    19.2740 ca         1 A1A      -0.131000
      9 C13          2.7830   -14.7490    20.1530 ca         1 A1A      -0.005000
     10 C15          3.2960   -11.1260    22.6730 c6         1 A1A      -0.054400
     11 S            3.5230   -13.8720    22.6630 sy         1 A1A       1.048500
     12 O            4.9860   -13.8820    22.5250 o          1 A1A      -0.522500
     13 C14          3.0710   -12.3710    23.5560 c6         1 A1A      -0.306400
     14 C16          2.3310   -11.1190    21.4650 c6         1 A1A      -0.050100
     15 C11          2.3510   -12.3760    20.5780 ca         1 A1A       0.011700
     16 C9           1.7890   -13.3770    18.4160 ca         1 A1A      -0.030000
     17 C12          2.8270   -13.6360    21.0180 ca         1 A1A      -0.244500
     18 C3           2.2120   -15.8340    17.9080 c3         1 A1A       0.291800
     19 C1           1.3060   -16.9880    18.4410 c3         1 A1A      -0.070700
     20 C2           1.1890   -18.1600    17.4320 c3         1 A1A      -0.088600
     21 C           -0.1070   -16.4870    18.8340 c3         1 A1A      -0.088600
     22 N            3.5800   -16.3200    17.6790 nu         1 A1A      -0.921100
     23 Cl           6.3570   -17.5110    18.1830 cl         1 A1A      -0.204000
     24 N2           6.6420   -14.2600    15.7980 nb         1 A1A      -0.292000
     25 H10          8.9330   -14.9590    16.2970 hn         1 A1A       0.494500
     26 H11          8.5590   -16.3270    17.2950 hn         1 A1A       0.494500
     27 H9           5.0900   -13.0490    15.1270 h5         1 A1A       0.043100
     28 H13          1.4510   -11.3110    18.9210 ha         1 A1A       0.116000
     29 H14          3.1600   -15.7120    20.4930 ha         1 A1A       0.127000
     30 H17          3.1370   -10.2170    23.2690 hc         1 A1A       0.064700
     31 H18          4.3380   -11.0850    22.3230 hc         1 A1A       0.064700
     32 H16          2.0150   -12.4830    23.8300 h1         1 A1A       0.107200
     33 H15          3.6910   -12.3570    24.4610 h1         1 A1A       0.107200
     34 H19          1.3050   -10.9690    21.8310 hc         1 A1A       0.064200
     35 H20          2.5540   -10.2370    20.8490 hc         1 A1A       0.064200
     36 H12          1.3850   -13.2620    17.4130 ha         1 A1A       0.124000
     37 H            1.7830   -15.5070    16.9480 h1         1 A1A       0.083700
     38 H4           1.7670   -17.3890    19.3530 hc         1 A1A       0.051700
     39 H5           2.1700   -18.6020    17.2160 hc         1 A1A       0.038867
     40 H7           0.5510   -18.9560    17.8340 hc         1 A1A       0.038867
     41 H6           0.7530   -17.8170    16.4860 hc         1 A1A       0.038867
     42 H1          -0.0580   -15.7460    19.6410 hc         1 A1A       0.038867
     43 H2          -0.6110   -16.0270    17.9750 hc         1 A1A       0.038867
     44 H3          -0.7290   -17.3180    19.1890 hc         1 A1A       0.038867
     45 H8           3.8730   -17.1430    18.2020 hn         1 A1A       0.505000
     46 O1           2.8370   -15.0070    23.2930 o          1 A1A      -0.522500
@<TRIPOS>BOND
     1     1     3 ar  
     2     1     4 ar  
     3     2     5 1   
     4     2    25 1   
     5     2    26 1   
     6     3     6 ar  
     7     3    22 1   
     8     4    24 ar  
     9     4    27 1   
    10     5     6 ar  
    11     5    24 ar  
    12     6    23 1   
    13     7     9 ar  
    14     7    16 ar  
    15     7    18 1   
    16     8    15 ar  
    17     8    16 ar  
    18     8    28 1   
    19     9    17 ar  
    20     9    29 1   
    21    10    13 1   
    22    10    14 1   
    23    10    30 1   
    24    10    31 1   
    25    11    12 2   
    26    11    13 1   
    27    11    17 1   
    28    11    46 2   
    29    13    32 1   
    30    13    33 1   
    31    14    15 1   
    32    14    34 1   
    33    14    35 1   
    34    15    17 ar  
    35    16    36 1   
    36    18    19 1   
    37    18    22 1   
    38    18    37 1   
    39    19    20 1   
    40    19    21 1   
    41    19    38 1   
    42    20    39 1   
    43    20    40 1   
    44    20    41 1   
    45    21    42 1   
    46    21    43 1   
    47    21    44 1   
    48    22    45 1   
@<TRIPOS>SUBSTRUCTURE
     1 A1A         1 TEMP              0 ****  ****    0 ROOT
