@<TRIPOS>MOLECULE
A1A
   54    58     1     0     0
SMALL
abcg2


@<TRIPOS>ATOM
      1 N1           9.0290    -7.0060    18.8200 nb         1 A1A      -0.311000
      2 N3           5.3110    -8.2220    19.6520 na         1 A1A      -0.310400
      3 C4           8.5920    -8.1830    18.3680 ca         1 A1A       0.445900
      4 C5           8.2070    -6.2500    19.5470 ca         1 A1A       0.185900
      5 C6           6.5350    -7.6850    19.4520 ca         1 A1A       0.156500
      6 C7           5.2370    -9.4510    19.0290 cc         1 A1A      -0.000300
      7 C8           4.0320   -10.2410    19.0880 cc         1 A1A      -0.080800
      8 C13          6.4410    -9.7060    18.4190 cd         1 A1A      -0.176200
      9 C15         10.8020    -8.5950    15.7090 ca         1 A1A       0.345300
     10 C17         11.4130    -7.5800    13.6300 ca         1 A1A      -0.069000
     11 C20          9.5530   -10.8310    11.7940 c          1 A1A       0.548000
     12 C21          9.8740    -9.5350    11.0740 c6         1 A1A       0.069600
     13 O            9.0450   -11.7740    11.2290 o          1 A1A      -0.514000
     14 O1          10.9570    -8.8250    11.6460 os         1 A1A      -0.318100
     15 C18         10.8970    -8.6840    12.9880 ca         1 A1A       0.035100
     16 C16         11.3660    -7.5360    15.0200 ca         1 A1A      -0.146000
     17 N8           9.8250   -10.8130    13.1240 ns         1 A1A      -0.319900
     18 C19         10.3370    -9.6970    13.7700 ca         1 A1A       0.438900
     19 N7          10.2920    -9.6560    15.0820 nb         1 A1A      -0.707000
     20 C3          10.7460    -8.6290    17.2180 c3         1 A1A       0.195200
     21 C1          11.7660    -9.6200    17.8100 c3         1 A1A      -0.069700
     22 C2          13.1750    -9.3320    17.3030 c3         1 A1A      -0.087600
     23 C           11.7280    -9.5820    19.3340 c3         1 A1A      -0.087600
     24 N            9.4010    -8.9610    17.6370 nu         1 A1A      -0.913100
     25 C14          7.2740    -8.5860    18.6810 ca         1 A1A      -0.264800
     26 N2           6.9650    -6.5040    19.9060 nb         1 A1A      -0.235000
     27 C11          3.7570   -11.4520    18.4630 cd         1 A1A      -0.084000
     28 C12          4.5500   -12.2480    17.6140 ch         1 A1A       0.344000
     29 N6           5.2040   -12.8980    16.9220 n1         1 A1A      -0.430000
     30 N5           2.4990   -11.8120    18.8120 na         1 A1A       0.164800
     31 N4           1.9480   -10.9270    19.6100 nd         1 A1A      -0.490800
     32 C9           2.8450    -9.9750    19.7930 cc         1 A1A       0.231900
     33 H1           4.5720    -7.7690    20.1690 hn         1 A1A       0.363000
     34 H10          8.6220    -5.3060    19.8850 h5         1 A1A       0.043100
     35 H13          0.8180   -12.9960    18.8840 h1         1 A1A       0.068367
     36 H14          1.6280   -12.9760    17.3070 h1         1 A1A       0.068367
     37 H12          2.3310   -13.8910    18.6580 h1         1 A1A       0.068367
     38 H15          6.6970   -10.5880    17.8550 ha         1 A1A       0.208000
     39 H17         11.8570    -6.7740    13.0590 ha         1 A1A       0.139000
     40 H19         10.1430    -9.7560    10.0440 h1         1 A1A       0.088200
     41 H20          8.9640    -8.9200    11.0660 h1         1 A1A       0.088200
     42 H16         11.7650    -6.6860    15.5550 ha         1 A1A       0.137000
     43 H18          9.5490   -11.6050    13.6910 hn         1 A1A       0.179000
     44 H           10.9700    -7.6320    17.6000 h1         1 A1A       0.099700
     45 H5          11.4800   -10.6250    17.4780 hc         1 A1A       0.058700
     46 H7          13.2670    -9.4730    16.2260 hc         1 A1A       0.038033
     47 H6          13.4760    -8.3060    17.5310 hc         1 A1A       0.038033
     48 H8          13.8930    -9.9990    17.7810 hc         1 A1A       0.038033
     49 H3          10.7460    -9.8440    19.7270 hc         1 A1A       0.038033
     50 H4          12.4470   -10.2890    19.7510 hc         1 A1A       0.038033
     51 H2          11.9850    -8.5890    19.7080 hc         1 A1A       0.038033
     52 H9           9.0270    -9.8290    17.2840 hn         1 A1A       0.510000
     53 H11          2.6150    -9.1330    20.4280 h4         1 A1A       0.043100
     54 C10          1.7810   -12.9930    18.3840 c3         1 A1A       0.065900
@<TRIPOS>BOND
     1     1     3 ar  
     2     1     4 ar  
     3     2     5 1   
     4     2     6 1   
     5     2    33 1   
     6     3    24 1   
     7     3    25 ar  
     8     4    26 ar  
     9     4    34 1   
    10     5    25 ar  
    11     5    26 ar  
    12     6     7 1   
    13     6     8 2   
    14     7    27 2   
    15     7    32 1   
    16     8    25 1   
    17     8    38 1   
    18     9    16 ar  
    19     9    19 ar  
    20     9    20 1   
    21    10    15 ar  
    22    10    16 ar  
    23    10    39 1   
    24    11    12 1   
    25    11    13 2   
    26    11    17 1   
    27    12    14 1   
    28    12    40 1   
    29    12    41 1   
    30    14    15 1   
    31    15    18 ar  
    32    16    42 1   
    33    17    18 1   
    34    17    43 1   
    35    18    19 ar  
    36    20    21 1   
    37    20    24 1   
    38    20    44 1   
    39    21    22 1   
    40    21    23 1   
    41    21    45 1   
    42    22    46 1   
    43    22    47 1   
    44    22    48 1   
    45    23    49 1   
    46    23    50 1   
    47    23    51 1   
    48    24    52 1   
    49    27    28 1   
    50    27    30 1   
    51    28    29 3   
    52    30    31 1   
    53    30    54 1   
    54    31    32 2   
    55    32    53 1   
    56    35    54 1   
    57    36    54 1   
    58    37    54 1   
@<TRIPOS>SUBSTRUCTURE
     1 A1A         1 TEMP              0 ****  ****    0 ROOT
