@<TRIPOS>MOLECULE
A1A
   56    59     1     0     0
SMALL
No Charge or Current Charge


@<TRIPOS>ATOM
      1 N1           9.2650    -9.3700    13.8670 nu         1 A1A      -0.917100
      2 N3           6.4100    -7.2520    16.0070 nb         1 A1A      -0.236000
      3 C4           6.3050   -10.1970    14.0140 cc         1 A1A      -0.118200
      4 C5           6.9730    -9.0820    14.6200 ca         1 A1A      -0.275800
      5 C6           8.3080    -8.6650    14.5810 ca         1 A1A       0.444900
      6 C7          10.6320    -8.9410    13.5450 c3         1 A1A       0.293800
      7 C8          10.5630    -7.7540    12.5820 ca         1 A1A      -0.143300
      8 C10         11.0240    -5.4100    12.0920 ca         1 A1A      -0.161000
      9 C13          9.9750    -7.8890    11.3090 ca         1 A1A       0.028000
     10 C15         10.1900    -4.5250     8.5940 c6         1 A1A       0.177600
     11 C20          6.0520    -8.3610    15.3340 ca         1 A1A       0.160500
     12 S            9.1460    -6.9810     8.8390 sy         1 A1A       1.075500
     13 O1           7.8320    -7.6050     9.0370 o          1 A1A      -0.516000
     14 C14          8.9000    -5.2970     8.3080 c6         1 A1A      -0.359400
     15 O3          10.4160    -4.4240    10.0120 os         1 A1A      -0.333100
     16 C11         10.4560    -5.5460    10.8170 ca         1 A1A       0.227100
     17 C9          11.0830    -6.5040    12.9700 ca         1 A1A       0.001000
     18 C12          9.9220    -6.7890    10.4300 ca         1 A1A      -0.342500
     19 C16         11.4640   -10.1370    12.9850 c3         1 A1A      -0.070700
     20 C18         12.8660    -9.6930    12.4950 c3         1 A1A      -0.088600
     21 N2           8.6890    -7.5600    15.2490 nb         1 A1A      -0.305000
     22 C19          7.7170    -6.9070    15.9290 ca         1 A1A       0.188900
     23 N4           4.8100    -8.9650    15.2190 na         1 A1A      -0.309400
     24 C3           4.9700   -10.1160    14.3900 cd         1 A1A      -0.167300
     25 C2           3.9480   -11.1150    13.9510 c          1 A1A       0.636300
     26 O            4.1980   -12.0740    13.2320 o          1 A1A      -0.588100
     27 N            2.6810   -10.8580    14.4270 ns         1 A1A      -0.506900
     28 C1           1.5060   -11.6940    14.1710 c3         1 A1A       0.102000
     29 C            1.4850   -12.9490    15.0610 c3         1 A1A      -0.118100
     30 H9           8.9270   -10.2150    13.4150 hn         1 A1A       0.500000
     31 H8           6.7330   -10.9720    13.3780 ha         1 A1A       0.220000
     32 H           11.1300    -8.6100    14.4700 h1         1 A1A       0.083700
     33 H11         11.4240    -4.4480    12.4000 ha         1 A1A       0.134000
     34 H12          9.5540    -8.8470    11.0070 ha         1 A1A       0.126000
     35 H15         11.0570    -5.0110     8.1210 h1         1 A1A       0.079200
     36 H16         10.1160    -3.5080     8.1830 h1         1 A1A       0.079200
     37 H18         12.1900   -12.1160    13.5920 hc         1 A1A       0.039367
     38 H20         12.1110   -10.9410    14.9220 hc         1 A1A       0.039367
     39 H19         10.6260   -11.6920    14.3000 hc         1 A1A       0.039367
     40 H13          8.6570    -5.3360     7.2400 h1         1 A1A       0.121200
     41 H14          8.0560    -4.9040     8.8870 h1         1 A1A       0.121200
     42 H10         11.5310    -6.3770    13.9540 ha         1 A1A       0.126000
     43 H17         10.9350   -10.5420    12.1130 hc         1 A1A       0.049700
     44 H22         13.4370   -10.5530    12.1220 hc         1 A1A       0.039367
     45 H21         12.7920    -8.9690    11.6750 hc         1 A1A       0.039367
     46 H23         13.4370    -9.2330    13.3100 hc         1 A1A       0.039367
     47 H24          8.0190    -6.0110    16.4700 h5         1 A1A       0.043100
     48 H1           3.9580    -8.6310    15.6540 hn         1 A1A       0.360000
     49 H7           2.5700   -10.0400    15.0100 hn         1 A1A       0.306500
     50 H6           1.4980   -11.9910    13.1130 h1         1 A1A       0.055700
     51 H5           0.6030   -11.0980    14.3610 h1         1 A1A       0.055700
     52 H4           0.5860   -13.5430    14.8580 hc         1 A1A       0.043367
     53 H2           2.3620   -13.5790    14.8700 hc         1 A1A       0.043367
     54 H3           1.4810   -12.6710    16.1210 hc         1 A1A       0.043367
     55 C17         11.6050   -11.2900    14.0130 c3         1 A1A      -0.088600
     56 O2          10.1290    -7.5930     7.9370 o          1 A1A      -0.516000
@<TRIPOS>BOND
     1     1     5 1   
     2     1     6 1   
     3     1    30 1   
     4     2    11 ar  
     5     2    22 ar  
     6     3     4 1   
     7     3    24 2   
     8     3    31 1   
     9     4     5 ar  
    10     4    11 ar  
    11     5    21 ar  
    12     6     7 1   
    13     6    19 1   
    14     6    32 1   
    15     7     9 ar  
    16     7    17 ar  
    17     8    16 ar  
    18     8    17 ar  
    19     8    33 1   
    20     9    18 ar  
    21     9    34 1   
    22    10    14 1   
    23    10    15 1   
    24    10    35 1   
    25    10    36 1   
    26    11    23 1   
    27    12    13 2   
    28    12    14 1   
    29    12    18 1   
    30    12    56 2   
    31    14    40 1   
    32    14    41 1   
    33    15    16 1   
    34    16    18 ar  
    35    17    42 1   
    36    19    20 1   
    37    19    43 1   
    38    19    55 1   
    39    20    44 1   
    40    20    45 1   
    41    20    46 1   
    42    21    22 ar  
    43    22    47 1   
    44    23    24 1   
    45    23    48 1   
    46    24    25 1   
    47    25    26 2   
    48    25    27 1   
    49    27    28 1   
    50    27    49 1   
    51    28    29 1   
    52    28    50 1   
    53    28    51 1   
    54    29    52 1   
    55    29    53 1   
    56    29    54 1   
    57    37    55 1   
    58    38    55 1   
    59    39    55 1   
@<TRIPOS>SUBSTRUCTURE
     1 A1A         1 TEMP              0 ****  ****    0 ROOT
