@<TRIPOS>MOLECULE
A1A
   32    32     1     0     0
SMALL
No Charge or Current Charge


@<TRIPOS>ATOM
      1 N1           7.6390    14.2400     5.4300 n3         1 A1A      -0.765500
      2 C4           5.0440    12.0020     3.3820 c6         1 A1A       0.161800
      3 C5           3.4910    12.0940     3.3730 c6         1 A1A       0.155600
      4 C6           8.2720    15.5210     5.0640 c3         1 A1A       0.200600
      5 C7           6.5530    14.3700     6.4250 c3         1 A1A       0.200600
      6 N            5.6650    13.2200     3.9810 n3         1 A1A      -0.755500
      7 O            3.0600    13.3010     2.7010 os         1 A1A      -0.444000
      8 C1           3.0320    15.7210     2.5310 c3         1 A1A      -0.071400
      9 C2           3.5900    14.5000     3.3150 c6         1 A1A       0.168300
     10 C3           5.1490    14.4510     3.3080 c6         1 A1A       0.152800
     11 O1           7.7550    11.8120     4.6240 o          1 A1A      -0.552000
     12 O2           7.9470    13.6840     2.8990 o          1 A1A      -0.552000
     13 S            7.3740    13.1390     4.1330 s6         1 A1A       1.287200
     14 H9           5.3290    11.1020     3.9470 h1         1 A1A       0.067700
     15 H11          3.0660    11.2230     2.8550 h1         1 A1A       0.054700
     16 H10          3.1110    12.0990     4.4050 h1         1 A1A       0.054700
     17 H12          8.5120    16.1070     5.9610 h1         1 A1A       0.048533
     18 H14          9.2110    15.3540     4.5180 h1         1 A1A       0.048533
     19 H13          7.6080    16.1240     4.4310 h1         1 A1A       0.048533
     20 H15          6.9120    14.8970     7.3180 h1         1 A1A       0.048533
     21 H16          5.7010    14.9350     6.0260 h1         1 A1A       0.048533
     22 H17          6.1940    13.3830     6.7450 h1         1 A1A       0.048533
     23 H2           1.1820    16.7640     2.0290 hc         1 A1A       0.037700
     24 H            1.0090    14.9990     2.1060 hc         1 A1A       0.037700
     25 H1           1.1420    15.9460     3.6060 hc         1 A1A       0.037700
     26 H3           3.3540    15.6670     1.4840 hc         1 A1A       0.046200
     27 H4           3.4700    16.6400     2.9380 hc         1 A1A       0.046200
     28 H5           3.2350    14.5560     4.3540 h1         1 A1A       0.042700
     29 H7           5.4950    14.4900     2.2640 h1         1 A1A       0.056200
     30 H6           5.5270    15.3560     3.8030 h1         1 A1A       0.056200
     31 H8           5.3950    11.8580     2.3490 h1         1 A1A       0.067700
     32 C            1.4960    15.8640     2.5710 c3         1 A1A      -0.084100
@<TRIPOS>BOND
     1     1     4 1   
     2     1     5 1   
     3     1    13 1   
     4     2     3 1   
     5     2     6 1   
     6     2    14 1   
     7     2    31 1   
     8     3     7 1   
     9     3    15 1   
    10     3    16 1   
    11     4    17 1   
    12     4    18 1   
    13     4    19 1   
    14     5    20 1   
    15     5    21 1   
    16     5    22 1   
    17     6    10 1   
    18     6    13 1   
    19     7     9 1   
    20     8     9 1   
    21     8    26 1   
    22     8    27 1   
    23     8    32 1   
    24     9    10 1   
    25     9    28 1   
    26    10    29 1   
    27    10    30 1   
    28    11    13 2   
    29    12    13 2   
    30    23    32 1   
    31    24    32 1   
    32    25    32 1   
@<TRIPOS>SUBSTRUCTURE
     1 A1A         1 TEMP              0 ****  ****    0 ROOT
