@<TRIPOS>MOLECULE
A1A
   18    18     1     0     0
SMALL
abcg2


@<TRIPOS>ATOM
      1 N1          13.2010    -4.1390    34.6110 nc         1 A1A      -0.645300
      2 C4          13.2530    -5.9730    33.0750 cd         1 A1A      -0.369200
      3 C5          14.6310    -6.2510    33.3720 c          1 A1A       0.556200
      4 N           15.1690    -5.3850    34.3330 n          1 A1A      -0.310300
      5 C           17.4730    -4.7390    33.7390 c3         1 A1A       0.140600
      6 O           17.1260    -3.3780    33.8140 oh         1 A1A      -0.669000
      7 C1          16.5790    -5.5100    34.6890 c3         1 A1A       0.083000
      8 C2          14.4380    -4.3940    34.8830 cd         1 A1A       0.519800
      9 C3          12.6160    -4.9480    33.6890 cc         1 A1A       0.086600
     10 O1          15.3120    -7.1320    32.8720 o          1 A1A      -0.551000
     11 H7          12.7490    -6.5940    32.3480 ha         1 A1A       0.213000
     12 H2          17.3620    -5.1370    32.7250 h1         1 A1A       0.039700
     13 H1          18.5110    -4.9200    34.0440 h1         1 A1A       0.039700
     14 H           17.5480    -2.9140    33.0860 ho         1 A1A       0.453000
     15 H4          16.8540    -6.5620    34.6880 h1         1 A1A       0.073700
     16 H3          16.7020    -5.1400    35.7070 h1         1 A1A       0.073700
     17 H5          14.9510    -3.7880    35.6200 h5         1 A1A       0.054800
     18 H6          11.5800    -4.7310    33.4580 h4         1 A1A       0.210000
@<TRIPOS>BOND
     1     1     8 2   
     2     1     9 1   
     3     2     3 1   
     4     2     9 2   
     5     2    11 1   
     6     3     4 1   
     7     3    10 2   
     8     4     7 1   
     9     4     8 1   
    10     5     6 1   
    11     5     7 1   
    12     5    12 1   
    13     5    13 1   
    14     6    14 1   
    15     7    15 1   
    16     7    16 1   
    17     8    17 1   
    18     9    18 1   
@<TRIPOS>SUBSTRUCTURE
     1 A1A         1 TEMP              0 ****  ****    0 ROOT
