@<TRIPOS>MOLECULE
A1A
   46    49     1     0     0
SMALL
abcg2


@<TRIPOS>ATOM
      1 N1         -10.4840    -7.3490    18.1520 nb         1 A1A      -0.304000
      2 N3         -14.2310    -8.2560    19.2270 na         1 A1A      -0.315400
      3 C4         -10.8340    -8.6170    18.3740 ca         1 A1A       0.436900
      4 C5         -11.4070    -6.3970    18.2890 ca         1 A1A       0.176900
      5 C6         -13.0120    -7.8030    18.8520 ca         1 A1A       0.145500
      6 C7         -14.1840    -9.6200    19.3690 cc         1 A1A      -0.178100
      7 C8         -12.9270   -10.0670    19.0840 cd         1 A1A      -0.204200
      8 C10         -8.4580    -9.0840    16.3430 ca         1 A1A      -0.142300
      9 C13         -8.2720    -8.6210    13.5670 ca         1 A1A       0.227100
     10 C15         -8.8440   -10.0580    15.4400 ca         1 A1A       0.027000
     11 C17         -8.2770    -9.3150    11.2770 c6         1 A1A       0.178600
     12 S           -9.1870   -11.1560    12.9850 sy         1 A1A       1.079500
     13 O          -10.4200   -11.7740    13.4570 o          1 A1A      -0.519000
     14 C16         -9.4670   -10.2290    11.4910 c6         1 A1A      -0.361400
     15 O2          -8.1840    -8.3020    12.2650 os         1 A1A      -0.334100
     16 C12         -7.9030    -7.6350    14.4790 ca         1 A1A      -0.161000
     17 C11         -7.9940    -7.8700    15.8370 ca         1 A1A       0.004000
     18 C14         -8.7400    -9.8380    14.0690 ca         1 A1A      -0.345500
     19 C3          -8.5390    -9.3260    17.8350 c3         1 A1A       0.294800
     20 C1          -7.6340   -10.4800    18.3010 c3         1 A1A      -0.070700
     21 C2          -6.2020   -10.2710    17.8230 c3         1 A1A      -0.088600
     22 C           -7.6680   -10.6200    19.8200 c3         1 A1A      -0.088600
     23 N           -9.9020    -9.5780    18.2560 nu         1 A1A      -0.923100
     24 C9         -12.1620    -8.9100    18.7480 ca         1 A1A      -0.257800
     25 N2         -12.6720    -6.5290    18.6260 nb         1 A1A      -0.229000
     26 H1         -15.0430    -7.6800    19.3840 hn         1 A1A       0.361000
     27 H10        -11.0640    -5.3860    18.0930 h5         1 A1A       0.041100
     28 H11        -15.0620   -10.1690    19.6670 h4         1 A1A       0.217000
     29 H12        -12.6000   -11.0940    19.1160 ha         1 A1A       0.203000
     30 H15         -9.2320   -11.0060    15.7970 ha         1 A1A       0.125000
     31 H18         -7.3500    -9.8940    11.2440 h1         1 A1A       0.079200
     32 H19         -8.3830    -8.7980    10.3260 h1         1 A1A       0.079200
     33 H16         -9.5560   -10.9480    10.6730 h1         1 A1A       0.120700
     34 H17        -10.4050    -9.6800    11.5890 h1         1 A1A       0.120700
     35 H14         -7.5480    -6.6810    14.1090 ha         1 A1A       0.134000
     36 H13         -7.6960    -7.0890    16.5250 ha         1 A1A       0.128000
     37 H           -8.1970    -8.4180    18.3400 h1         1 A1A       0.083700
     38 H5          -8.0100   -11.4100    17.8560 hc         1 A1A       0.046700
     39 H7          -6.1200   -10.2770    16.7360 hc         1 A1A       0.039033
     40 H6          -5.8030    -9.3190    18.1830 hc         1 A1A       0.039033
     41 H8          -5.5570   -11.0640    18.2050 hc         1 A1A       0.039033
     42 H2          -8.6680   -10.8270    20.2010 hc         1 A1A       0.039033
     43 H3          -7.0200   -11.4360    20.1410 hc         1 A1A       0.039033
     44 H4          -7.3120    -9.7050    20.3000 hc         1 A1A       0.039033
     45 H9         -10.2040   -10.5370    18.3250 hn         1 A1A       0.497000
     46 O1          -8.0180   -12.0070    12.7780 o          1 A1A      -0.519000
@<TRIPOS>BOND
     1     1     3 ar  
     2     1     4 ar  
     3     2     5 1   
     4     2     6 1   
     5     2    26 1   
     6     3    23 1   
     7     3    24 ar  
     8     4    25 ar  
     9     4    27 1   
    10     5    24 ar  
    11     5    25 ar  
    12     6     7 2   
    13     6    28 1   
    14     7    24 1   
    15     7    29 1   
    16     8    10 ar  
    17     8    17 ar  
    18     8    19 1   
    19     9    15 1   
    20     9    16 ar  
    21     9    18 ar  
    22    10    18 ar  
    23    10    30 1   
    24    11    14 1   
    25    11    15 1   
    26    11    31 1   
    27    11    32 1   
    28    12    13 2   
    29    12    14 1   
    30    12    18 1   
    31    12    46 2   
    32    14    33 1   
    33    14    34 1   
    34    16    17 ar  
    35    16    35 1   
    36    17    36 1   
    37    19    20 1   
    38    19    23 1   
    39    19    37 1   
    40    20    21 1   
    41    20    22 1   
    42    20    38 1   
    43    21    39 1   
    44    21    40 1   
    45    21    41 1   
    46    22    42 1   
    47    22    43 1   
    48    22    44 1   
    49    23    45 1   
@<TRIPOS>SUBSTRUCTURE
     1 A1A         1 TEMP              0 ****  ****    0 ROOT
