@<TRIPOS>MOLECULE
A1A
   29    30     1     0     0
SMALL
abcg2


@<TRIPOS>ATOM
      1 N1           6.6190    41.5250    25.7360 ns         1 A1A      -0.492900
      2 C4           6.5350    40.1910    25.6850 c          1 A1A       0.529600
      3 C5           5.9100    42.3090    26.7280 c3         1 A1A       0.118000
      4 C6           4.4420    42.5230    26.3960 c5         1 A1A      -0.128700
      5 C7           3.7130    43.4090    27.4010 c5         1 A1A      -0.109400
      6 C8           2.5150    43.8790    26.5900 c5         1 A1A       0.155600
      7 N            8.6940    39.3910    22.9060 nc         1 A1A      -0.349300
      8 O            8.0750    40.2310    23.7790 os         1 A1A      -0.079700
      9 C1           8.3200    38.1820    23.2200 cd         1 A1A       0.268300
     10 C2           7.4290    38.2050    24.3250 cd         1 A1A      -0.171000
     11 C3           7.3220    39.5190    24.6200 cc         1 A1A       0.104500
     12 C9           4.2020    43.2910    25.0990 c5         1 A1A       0.158600
     13 O1           5.8730    39.5060    26.4490 o          1 A1A      -0.581100
     14 O2           2.9440    43.9300    25.2370 os         1 A1A      -0.460000
     15 H4           7.1670    42.0200    25.0500 hn         1 A1A       0.335500
     16 H6           6.0060    41.8280    27.7020 h1         1 A1A       0.058700
     17 H5           6.4160    43.2730    26.7940 h1         1 A1A       0.058700
     18 H7           3.9380    41.5530    26.3450 hc         1 A1A       0.081700
     19 H8           3.4220    42.8820    28.3090 hc         1 A1A       0.056200
     20 H9           4.3440    44.2550    27.6920 hc         1 A1A       0.056200
     21 H10          1.6800    43.1750    26.6920 h1         1 A1A       0.046200
     22 H11          2.1560    44.8640    26.8980 h1         1 A1A       0.046200
     23 H            9.4550    37.2950    21.6440 hc         1 A1A       0.059367
     24 H2           9.3760    36.3370    23.1280 hc         1 A1A       0.059367
     25 H1           7.9750    36.4250    22.0710 hc         1 A1A       0.059367
     26 H13          4.1860    42.6410    24.2200 h1         1 A1A       0.043200
     27 H12          4.9930    44.0390    24.9460 h1         1 A1A       0.043200
     28 H3           6.9540    37.3690    24.8100 ha         1 A1A       0.169000
     29 C            8.8120    36.9980    22.4700 c3         1 A1A      -0.134400
@<TRIPOS>BOND
     1     1     2 1   
     2     1     3 1   
     3     1    15 1   
     4     2    11 1   
     5     2    13 2   
     6     3     4 1   
     7     3    16 1   
     8     3    17 1   
     9     4     5 1   
    10     4    12 1   
    11     4    18 1   
    12     5     6 1   
    13     5    19 1   
    14     5    20 1   
    15     6    14 1   
    16     6    21 1   
    17     6    22 1   
    18     7     8 1   
    19     7     9 2   
    20     8    11 1   
    21     9    10 1   
    22     9    29 1   
    23    10    11 2   
    24    10    28 1   
    25    12    14 1   
    26    12    26 1   
    27    12    27 1   
    28    23    29 1   
    29    24    29 1   
    30    25    29 1   
@<TRIPOS>SUBSTRUCTURE
     1 A1A         1 TEMP              0 ****  ****    0 ROOT
