@<TRIPOS>MOLECULE
A1A
   29    30     1     0     0
SMALL
No Charge or Current Charge


@<TRIPOS>ATOM
      1 N1           6.6460    41.4480    25.8720 ns         1 A1A      -0.492900
      2 C4           6.5020    40.0850    25.7040 c          1 A1A       0.529600
      3 C5           5.9030    42.2560    26.8420 c3         1 A1A       0.118000
      4 C6           4.4360    42.5230    26.4380 c5         1 A1A      -0.128700
      5 C7           3.6630    43.4760    27.3890 c5         1 A1A      -0.109400
      6 C8           2.4720    43.9400    26.4970 c5         1 A1A       0.155600
      7 N            8.8690    39.3780    22.9150 nc         1 A1A      -0.349300
      8 O            8.2150    40.2660    23.8510 os         1 A1A      -0.079700
      9 C1           8.3670    38.1850    23.1860 cd         1 A1A       0.268300
     10 C2           7.4300    38.2180    24.2320 cd         1 A1A      -0.171000
     11 C3           7.3560    39.5200    24.6250 cc         1 A1A       0.104500
     12 C9           4.2460    43.2940    25.1140 c5         1 A1A       0.158600
     13 O1           5.7380    39.4210    26.3940 o          1 A1A      -0.581100
     14 O2           2.8410    43.6050    25.1370 os         1 A1A      -0.460000
     15 H4           7.3130    41.9140    25.2640 hn         1 A1A       0.335500
     16 H6           5.9220    41.7480    27.8160 h1         1 A1A       0.058700
     17 H5           6.4240    43.2160    26.9600 h1         1 A1A       0.058700
     18 H7           3.9340    41.5500    26.3790 hc         1 A1A       0.081700
     19 H8           3.3280    42.9780    28.3060 hc         1 A1A       0.056200
     20 H9           4.2760    44.3350    27.6900 hc         1 A1A       0.056200
     21 H10          1.5410    43.4130    26.7480 h1         1 A1A       0.046200
     22 H11          2.2960    45.0210    26.5790 h1         1 A1A       0.046200
     23 H            8.5840    37.0910    21.3460 hc         1 A1A       0.059367
     24 H2           9.8830    36.8100    22.5200 hc         1 A1A       0.059367
     25 H1           8.2910    36.0730    22.7660 hc         1 A1A       0.059367
     26 H13          4.4870    42.6960    24.2250 h1         1 A1A       0.043200
     27 H12          4.8260    44.2280    25.0900 h1         1 A1A       0.043200
     28 H3           6.8790    37.3810    24.6440 ha         1 A1A       0.169000
     29 C            8.8050    36.9750    22.4130 c3         1 A1A      -0.134400
@<TRIPOS>BOND
     1     1     2 1   
     2     1     3 1   
     3     1    15 1   
     4     2    11 1   
     5     2    13 2   
     6     3     4 1   
     7     3    16 1   
     8     3    17 1   
     9     4     5 1   
    10     4    12 1   
    11     4    18 1   
    12     5     6 1   
    13     5    19 1   
    14     5    20 1   
    15     6    14 1   
    16     6    21 1   
    17     6    22 1   
    18     7     8 1   
    19     7     9 2   
    20     8    11 1   
    21     9    10 1   
    22     9    29 1   
    23    10    11 2   
    24    10    28 1   
    25    12    14 1   
    26    12    26 1   
    27    12    27 1   
    28    23    29 1   
    29    24    29 1   
    30    25    29 1   
@<TRIPOS>SUBSTRUCTURE
     1 A1A         1 TEMP              0 ****  ****    0 ROOT
