@<TRIPOS>MOLECULE
A1A
   22    22     1     0     0
SMALL
abcg2


@<TRIPOS>ATOM
      1 N1          17.3830    -7.8940    11.9840 nt         1 A1A      -0.547000
      2 C4          15.1900   -10.4370     9.2340 ca         1 A1A      -0.145000
      3 C5          15.8100    -9.2140     9.4480 ca         1 A1A      -0.073000
      4 C6          15.2280    -8.2600    10.2680 ca         1 A1A      -0.039400
      5 C7          16.8920    -6.8300    11.3530 cs         1 A1A       0.495400
      6 N           15.8730    -7.0210    10.4970 ns         1 A1A      -0.363100
      7 C           12.2770    -7.7600    12.3320 c3         1 A1A       0.145900
      8 C1          13.9940    -8.5170    10.8850 ca         1 A1A       0.144100
      9 C2          13.3680    -9.7410    10.6590 ca         1 A1A      -0.197000
     10 C3          13.9700   -10.6890     9.8420 ca         1 A1A      -0.061000
     11 S           17.5260    -5.2850    11.5980 s          1 A1A      -0.692400
     12 H8          18.1490    -7.7730    12.6220 hn         1 A1A       0.330000
     13 H9          17.0080    -8.8230    11.8710 hn         1 A1A       0.330000
     14 H5          15.6520   -11.1780     8.5970 ha         1 A1A       0.125000
     15 H6          16.7590    -8.9880     8.9760 ha         1 A1A       0.131000
     16 H7          15.4670    -6.1830    10.1070 hn         1 A1A       0.364500
     17 H1          12.0790    -6.8610    12.9100 h1         1 A1A       0.046367
     18 H2          11.4540    -7.9180    11.6310 h1         1 A1A       0.046367
     19 H           12.3330    -8.6140    13.0110 h1         1 A1A       0.046367
     20 H3          12.4150    -9.9720    11.1150 ha         1 A1A       0.124000
     21 H4          13.4710   -11.6360     9.6830 ha         1 A1A       0.118000
     22 O           13.5040    -7.5410    11.6610 os         1 A1A      -0.330100
@<TRIPOS>BOND
     1     1     5 1   
     2     1    12 1   
     3     1    13 1   
     4     2     3 ar  
     5     2    10 ar  
     6     2    14 1   
     7     3     4 ar  
     8     3    15 1   
     9     4     6 1   
    10     4     8 ar  
    11     5     6 1   
    12     5    11 2   
    13     6    16 1   
    14     7    17 1   
    15     7    18 1   
    16     7    19 1   
    17     7    22 1   
    18     8     9 ar  
    19     8    22 1   
    20     9    10 ar  
    21     9    20 1   
    22    10    21 1   
@<TRIPOS>SUBSTRUCTURE
     1 A1A         1 TEMP              0 ****  ****    0 ROOT
