@<TRIPOS>MOLECULE
A1A
   55    58     1     0     0
SMALL
No Charge or Current Charge


@<TRIPOS>ATOM
      1 N1           5.0940    -7.7470    18.0930 na         1 A1A      -0.305400
      2 N3           9.0460    -6.8520    18.7980 nb         1 A1A      -0.305000
      3 C4           6.3680    -7.2690    18.3360 ca         1 A1A       0.144500
      4 C5           8.1320    -5.8610    18.6950 ca         1 A1A       0.186900
      5 C6           8.5870    -8.1120    18.6630 ca         1 A1A       0.441900
      6 C7          10.8980    -9.0750    18.2710 c3         1 A1A       0.295800
      7 C8          10.8730    -8.8210    16.7610 ca         1 A1A      -0.101300
      8 C10         11.4250    -7.4100    14.8520 ca         1 A1A      -0.133000
      9 C13         10.2620    -9.7380    15.8840 ca         1 A1A      -0.004000
     10 C15          9.8020    -8.7140    11.5870 c6         1 A1A      -0.055400
     11 C17         11.6610   -10.3790    18.6610 c3         1 A1A      -0.071700
     12 C20          7.2190    -8.3460    18.4240 ca         1 A1A      -0.219800
     13 S            9.4090   -10.7090    13.4470 sy         1 A1A       1.051500
     14 O1           7.9610   -10.4920    13.5720 o          1 A1A      -0.522500
     15 C14          9.8860   -10.2440    11.7700 c6         1 A1A      -0.308400
     16 C16         10.8510    -7.9910    12.4630 c6         1 A1A      -0.048100
     17 C11         10.8130    -8.3180    13.9670 ca         1 A1A       0.008700
     18 C9          11.4520    -7.6530    16.2340 ca         1 A1A      -0.035000
     19 C12         10.2300    -9.4970    14.4960 ca         1 A1A      -0.245500
     20 C19         13.0820   -10.4290    18.0430 c3         1 A1A      -0.087600
     21 C18         11.7440   -10.5750    20.1970 c3         1 A1A      -0.087600
     22 N4           9.5160    -9.1280    18.7550 nu         1 A1A      -0.922100
     23 N2           6.8060    -6.0050    18.4700 nb         1 A1A      -0.240000
     24 C3           5.0740    -9.1520    18.0080 cc         1 A1A      -0.144100
     25 C2           6.3960    -9.5430    18.2120 cd         1 A1A      -0.179400
     26 C1           6.8440   -10.9770    18.1990 c          1 A1A       0.648300
     27 O            7.9930   -11.3500    18.3830 o          1 A1A      -0.643100
     28 N            5.8340   -11.8780    17.9560 ns         1 A1A      -0.495900
     29 C            6.0220   -13.3290    17.8890 c3         1 A1A       0.094300
     30 H            4.2830    -7.1460    17.9890 hn         1 A1A       0.366000
     31 H7           8.5010    -4.8430    18.8050 h5         1 A1A       0.042100
     32 H1          11.4180    -8.2350    18.7560 h1         1 A1A       0.074700
     33 H10         11.8860    -6.5040    14.4650 ha         1 A1A       0.113000
     34 H11          9.8010   -10.6400    16.2840 ha         1 A1A       0.138000
     35 H14          9.9740    -8.4590    10.5320 hc         1 A1A       0.064200
     36 H15          8.7930    -8.3520    11.8310 hc         1 A1A       0.064200
     37 H18         11.1050   -11.2330    18.2550 hc         1 A1A       0.061700
     38 H12         10.9110   -10.6090    11.6300 h1         1 A1A       0.105200
     39 H13          9.2050   -10.7810    11.0990 h1         1 A1A       0.105200
     40 H16         11.8550    -8.2240    12.0830 hc         1 A1A       0.062200
     41 H17         10.7300    -6.9070    12.3250 hc         1 A1A       0.062200
     42 H9          11.9260    -6.9310    16.8950 ha         1 A1A       0.119000
     43 H23         13.6030   -11.3460    18.3430 hc         1 A1A       0.037200
     44 H22         13.0400   -10.4180    16.9470 hc         1 A1A       0.037200
     45 H24         13.6810    -9.5720    18.3730 hc         1 A1A       0.037200
     46 H20         12.2850   -11.4980    20.4410 hc         1 A1A       0.037200
     47 H21         12.2690    -9.7360    20.6700 hc         1 A1A       0.037200
     48 H19         10.7450   -10.6510    20.6430 hc         1 A1A       0.037200
     49 H8           9.0720   -10.0510    18.6850 hn         1 A1A       0.546000
     50 H6           4.1630    -9.7140    17.8190 h4         1 A1A       0.213000
     51 H5           4.9080   -11.5010    17.8120 hn         1 A1A       0.314500
     52 H3           5.0600   -13.8150    17.6820 h1         1 A1A       0.043033
     53 H2           6.7300   -13.5720    17.0870 h1         1 A1A       0.043033
     54 H4           6.4140   -13.6950    18.8470 h1         1 A1A       0.043033
     55 O2           9.9820   -12.0300    13.7390 o          1 A1A      -0.522500
@<TRIPOS>BOND
     1     1     3 1   
     2     1    24 1   
     3     1    30 1   
     4     2     4 ar  
     5     2     5 ar  
     6     3    12 ar  
     7     3    23 ar  
     8     4    23 ar  
     9     4    31 1   
    10     5    12 ar  
    11     5    22 1   
    12     6     7 1   
    13     6    11 1   
    14     6    22 1   
    15     6    32 1   
    16     7     9 ar  
    17     7    18 ar  
    18     8    17 ar  
    19     8    18 ar  
    20     8    33 1   
    21     9    19 ar  
    22     9    34 1   
    23    10    15 1   
    24    10    16 1   
    25    10    35 1   
    26    10    36 1   
    27    11    20 1   
    28    11    21 1   
    29    11    37 1   
    30    12    25 1   
    31    13    14 2   
    32    13    15 1   
    33    13    19 1   
    34    13    55 2   
    35    15    38 1   
    36    15    39 1   
    37    16    17 1   
    38    16    40 1   
    39    16    41 1   
    40    17    19 ar  
    41    18    42 1   
    42    20    43 1   
    43    20    44 1   
    44    20    45 1   
    45    21    46 1   
    46    21    47 1   
    47    21    48 1   
    48    22    49 1   
    49    24    25 2   
    50    24    50 1   
    51    25    26 1   
    52    26    27 2   
    53    26    28 1   
    54    28    29 1   
    55    28    51 1   
    56    29    52 1   
    57    29    53 1   
    58    29    54 1   
@<TRIPOS>SUBSTRUCTURE
     1 A1A         1 TEMP              0 ****  ****    0 ROOT
