@<TRIPOS>MOLECULE
A1A
   62    66     1     0     0
SMALL
No Charge or Current Charge


@<TRIPOS>ATOM
      1 N1           2.7550     5.1730    47.2320 nb         1 A1A      -0.300000
      2 N3           6.6270     3.7760    47.4560 na         1 A1A      -0.314400
      3 C4           3.1140     4.0810    47.9360 ca         1 A1A       0.431900
      4 C5           3.7490     5.8220    46.5780 ca         1 A1A       0.174900
      5 C6           5.4000     4.3940    47.2610 ca         1 A1A       0.149500
      6 C7           6.4820     2.6510    48.2810 cc         1 A1A       0.032700
      7 C8           7.5300     1.7700    48.6980 cc         1 A1A      -0.154800
      8 C13          5.1410     2.5770    48.5980 cd         1 A1A      -0.200200
      9 C15          0.7780     5.0210    49.8250 ca         1 A1A      -0.108300
     10 C17          0.2470     7.3640    50.2450 ca         1 A1A      -0.131000
     11 C20          1.3390     4.9360    51.1140 ca         1 A1A      -0.007000
     12 C21          1.6020     7.3530    54.4930 c6         1 A1A      -0.306400
     13 C22          1.7450     8.6000    53.5960 c6         1 A1A      -0.055400
     14 S            2.1020     5.8680    53.5980 sy         1 A1A       1.050500
     15 O1           1.4880     4.7060    54.2540 o          1 A1A      -0.522000
     16 C23          0.7490     8.5520    52.4140 c6         1 A1A      -0.049100
     17 C18          0.8060     7.2900    51.5350 ca         1 A1A       0.012700
     18 C16          0.2340     6.2460    49.3960 ca         1 A1A      -0.030000
     19 C19          1.3530     6.0570    51.9700 ca         1 A1A      -0.246500
     20 C3           0.7550     3.8060    48.8940 c3         1 A1A       0.289800
     21 C1          -0.0820     2.6170    49.4630 c3         1 A1A      -0.070700
     22 C2          -1.5030     3.0590    49.8970 c3         1 A1A      -0.087600
     23 C           -0.1790     1.4340    48.4640 c3         1 A1A      -0.087600
     24 N            2.1370     3.3800    48.6260 nu         1 A1A      -0.923100
     25 C14          4.4530     3.6760    47.9550 ca         1 A1A      -0.248800
     26 N2           5.0630     5.4890    46.5540 nb         1 A1A      -0.229000
     27 C12          8.8430     1.8820    48.3570 cd         1 A1A      -0.145000
     28 N5           9.4560     0.8030    49.0060 na         1 A1A       0.144800
     29 N4           8.5580     0.0210    49.7270 nd         1 A1A      -0.514800
     30 C9           7.4120     0.6410    49.5200 cc         1 A1A       0.274900
     31 C11         11.7790     1.3170    49.8300 c          1 A1A       0.590100
     32 O           11.4010     2.3020    50.4450 o          1 A1A      -0.569100
     33 N6          13.0760     0.9360    49.9050 nt         1 A1A      -0.611000
     34 H1           7.4990     4.0980    47.0560 hn         1 A1A       0.359000
     35 H10          3.4610     6.7060    46.0100 h5         1 A1A       0.040100
     36 H17          4.6910     1.8150    49.2280 ha         1 A1A       0.202000
     37 H19         -0.1870     8.2980    49.8950 ha         1 A1A       0.115000
     38 H20          1.7690     3.9950    51.4500 ha         1 A1A       0.127000
     39 H22          0.5600     7.1930    54.7950 h1         1 A1A       0.105700
     40 H21          2.2440     7.4040    55.3810 h1         1 A1A       0.105700
     41 H23          1.5580     9.5060    54.1900 hc         1 A1A       0.065700
     42 H24          2.7740     8.6870    53.2180 hc         1 A1A       0.065700
     43 H25         -0.2720     8.6570    52.8050 hc         1 A1A       0.063200
     44 H26          0.9140     9.4380    51.7860 hc         1 A1A       0.063200
     45 H18         -0.2020     6.3330    48.4040 ha         1 A1A       0.123000
     46 H            0.2840     4.1050    47.9460 h1         1 A1A       0.084700
     47 H5           0.4240     2.2430    50.3620 hc         1 A1A       0.050700
     48 H6          -1.4610     3.8060    50.6980 hc         1 A1A       0.038367
     49 H8          -2.0520     3.4910    49.0510 hc         1 A1A       0.038367
     50 H7          -2.0770     2.2040    50.2750 hc         1 A1A       0.038367
     51 H2           0.8120     1.0340    48.2200 hc         1 A1A       0.038367
     52 H4          -0.7690     0.6140    48.8900 hc         1 A1A       0.038367
     53 H3          -0.6590     1.7510    47.5300 hc         1 A1A       0.038367
     54 H9           2.4690     2.5500    49.1090 hn         1 A1A       0.496000
     55 H16          9.3770     2.5980    47.7430 h4         1 A1A       0.152000
     56 H11          6.5130     0.2460    49.9760 h4         1 A1A       0.044100
     57 H14         13.7150     1.4730    50.4720 hn         1 A1A       0.318000
     58 H15         13.4000     0.1240    49.3990 hn         1 A1A       0.318000
     59 C10         10.8810     0.4460    48.9450 c3         1 A1A      -0.006400
     60 O2           3.5600     5.9270    53.4220 o          1 A1A      -0.522000
     61 H12         11.0060    -0.5980    49.2550 h1         1 A1A       0.080700
     62 H13         11.2290     0.5400    47.9110 h1         1 A1A       0.080700
@<TRIPOS>BOND
     1     1     3 ar  
     2     1     4 ar  
     3     2     5 1   
     4     2     6 1   
     5     2    34 1   
     6     3    24 1   
     7     3    25 ar  
     8     4    26 ar  
     9     4    35 1   
    10     5    25 ar  
    11     5    26 ar  
    12     6     7 1   
    13     6     8 2   
    14     7    27 2   
    15     7    30 1   
    16     8    25 1   
    17     8    36 1   
    18     9    11 ar  
    19     9    18 ar  
    20     9    20 1   
    21    10    17 ar  
    22    10    18 ar  
    23    10    37 1   
    24    11    19 ar  
    25    11    38 1   
    26    12    13 1   
    27    12    14 1   
    28    12    39 1   
    29    12    40 1   
    30    13    16 1   
    31    13    41 1   
    32    13    42 1   
    33    14    15 2   
    34    14    19 1   
    35    14    60 2   
    36    16    17 1   
    37    16    43 1   
    38    16    44 1   
    39    17    19 ar  
    40    18    45 1   
    41    20    21 1   
    42    20    24 1   
    43    20    46 1   
    44    21    22 1   
    45    21    23 1   
    46    21    47 1   
    47    22    48 1   
    48    22    49 1   
    49    22    50 1   
    50    23    51 1   
    51    23    52 1   
    52    23    53 1   
    53    24    54 1   
    54    27    28 1   
    55    27    55 1   
    56    28    29 1   
    57    28    59 1   
    58    29    30 2   
    59    30    56 1   
    60    31    32 2   
    61    31    33 1   
    62    31    59 1   
    63    33    57 1   
    64    33    58 1   
    65    59    61 1   
    66    59    62 1   
@<TRIPOS>SUBSTRUCTURE
     1 A1A         1 TEMP              0 ****  ****    0 ROOT
