@<TRIPOS>MOLECULE
A1A
   49    51     1     0     0
SMALL
No Charge or Current Charge


@<TRIPOS>ATOM
      1 N1           9.1070    -9.0370    18.5630 nu         1 A1A      -0.914100
      2 N3          10.8800    -6.7390    13.5160 nv         1 A1A      -1.057900
      3 C4           6.1660    -9.4690    19.3590 cc         1 A1A      -0.121200
      4 C5           6.8390    -8.2650    18.9660 ca         1 A1A      -0.279800
      5 C6           8.1660    -8.0200    18.5970 ca         1 A1A       0.446900
      6 C7          10.4310    -8.9990    17.9200 c3         1 A1A       0.284800
      7 C8          10.2510    -8.9090    16.3980 ca         1 A1A      -0.020300
      8 C10          9.4830    -9.7940    14.2660 ca         1 A1A       0.381900
      9 C13         11.2880   -10.2260    18.3630 c3         1 A1A      -0.069700
     10 C15         12.6410   -10.2950    17.6100 c3         1 A1A      -0.089100
     11 C17          5.9340    -7.2360    18.9850 ca         1 A1A       0.162500
     12 O            4.0600   -11.3120    20.2190 o          1 A1A      -0.592100
     13 N            2.5680    -9.5840    20.2440 ns         1 A1A      -0.505900
     14 C1           1.3970   -10.3360    20.7000 c3         1 A1A       0.102000
     15 C            1.4250   -10.5810    22.2190 c3         1 A1A      -0.118100
     16 C3           4.8440    -9.1250    19.6100 cd         1 A1A      -0.169300
     17 N6           4.6970    -7.7240    19.3770 na         1 A1A      -0.310400
     18 N5           6.2990    -5.9840    18.6550 nb         1 A1A      -0.239000
     19 C16          7.5980    -5.8160    18.3100 ca         1 A1A       0.190900
     20 N4           8.5540    -6.7740    18.2640 nb         1 A1A      -0.300000
     21 C14         11.5350   -10.2510    19.8940 c3         1 A1A      -0.089100
     22 C12         10.6970    -7.7850    15.6790 ca         1 A1A      -0.207000
     23 C11         10.5020    -7.7560    14.2960 ca         1 A1A       0.593900
     24 N2           9.9190    -8.7100    13.5850 nb         1 A1A      -0.741000
     25 C9           9.6280    -9.9330    15.6570 ca         1 A1A      -0.213000
     26 H9           8.7480    -9.9530    18.8160 hn         1 A1A       0.498000
     27 H12         10.4740    -6.7420    12.5890 hn         1 A1A       0.470500
     28 H13         11.0110    -5.8330    13.9520 hn         1 A1A       0.470500
     29 H8           6.5830   -10.4710    19.4510 ha         1 A1A       0.217000
     30 H           10.9670    -8.0970    18.2540 h1         1 A1A       0.085700
     31 H11          9.0020   -10.5750    13.6780 h4         1 A1A       0.015100
     32 H15         10.7340   -11.1380    18.1080 hc         1 A1A       0.048700
     33 H20         13.2310   -11.1550    17.9490 hc         1 A1A       0.039533
     34 H19         12.4910   -10.4060    16.5290 hc         1 A1A       0.039533
     35 H21         13.2310    -9.3870    17.7840 hc         1 A1A       0.039533
     36 H7           2.4670    -8.5940    20.0730 hn         1 A1A       0.307500
     37 H6           1.3560   -11.2980    20.1710 h1         1 A1A       0.055700
     38 H5           0.4940    -9.7690    20.4390 h1         1 A1A       0.055700
     39 H4           0.5280   -11.1290    22.5310 hc         1 A1A       0.043700
     40 H2           2.3030   -11.1720    22.5040 hc         1 A1A       0.043700
     41 H3           1.4530    -9.6300    22.7640 hc         1 A1A       0.043700
     42 H1           3.8560    -7.1670    19.4730 hn         1 A1A       0.360000
     43 H22          7.9060    -4.8070    18.0420 h5         1 A1A       0.043100
     44 H17         12.1380   -11.1230    20.1760 hc         1 A1A       0.039533
     45 H18         12.0680    -9.3480    20.2180 hc         1 A1A       0.039533
     46 H16         10.5930   -10.3090    20.4510 hc         1 A1A       0.039533
     47 H14         11.1820    -6.9550    16.1820 ha         1 A1A       0.123000
     48 H10          9.2510   -10.8260    16.1470 ha         1 A1A       0.119000
     49 C2           3.8210   -10.1230    20.0490 c          1 A1A       0.636300
@<TRIPOS>BOND
     1     1     5 1   
     2     1     6 1   
     3     1    26 1   
     4     2    23 1   
     5     2    27 1   
     6     2    28 1   
     7     3     4 1   
     8     3    16 2   
     9     3    29 1   
    10     4     5 ar  
    11     4    11 ar  
    12     5    20 ar  
    13     6     7 1   
    14     6     9 1   
    15     6    30 1   
    16     7    22 ar  
    17     7    25 ar  
    18     8    24 ar  
    19     8    25 ar  
    20     8    31 1   
    21     9    10 1   
    22     9    21 1   
    23     9    32 1   
    24    10    33 1   
    25    10    34 1   
    26    10    35 1   
    27    11    17 1   
    28    11    18 ar  
    29    12    49 2   
    30    13    14 1   
    31    13    36 1   
    32    13    49 1   
    33    14    15 1   
    34    14    37 1   
    35    14    38 1   
    36    15    39 1   
    37    15    40 1   
    38    15    41 1   
    39    16    17 1   
    40    16    49 1   
    41    17    42 1   
    42    18    19 ar  
    43    19    20 ar  
    44    19    43 1   
    45    21    44 1   
    46    21    45 1   
    47    21    46 1   
    48    22    23 ar  
    49    22    47 1   
    50    23    24 ar  
    51    25    48 1   
@<TRIPOS>SUBSTRUCTURE
     1 A1A         1 TEMP              0 ****  ****    0 ROOT
