@<TRIPOS>MOLECULE
A1A
   58    61     1     0     0
SMALL
No Charge or Current Charge


@<TRIPOS>ATOM
      1 N1           9.4950    -9.1920    18.5710 nu         1 A1A      -0.919100
      2 N3           6.6990    -6.1250    18.6310 nb         1 A1A      -0.235000
      3 C4           6.5110    -9.6370    19.1750 cc         1 A1A      -0.120200
      4 C5           7.2100    -8.4210    18.8740 ca         1 A1A      -0.275800
      5 C6           8.5580    -8.1700    18.5920 ca         1 A1A       0.444900
      6 C7          10.8770    -9.1230    18.0740 c3         1 A1A       0.289800
      7 C8          10.8540    -8.8890    16.5610 ca         1 A1A      -0.108300
      8 C10         11.4300    -7.5120    14.6330 ca         1 A1A      -0.131000
      9 C13         10.2480    -9.8190    15.6940 ca         1 A1A      -0.006000
     10 C15          9.8510    -8.8760    11.3700 c6         1 A1A      -0.056400
     11 C17         11.6680   -10.4060    18.4820 c3         1 A1A      -0.071700
     12 C20          8.0170    -5.9530    18.3690 ca         1 A1A       0.189900
     13 C21          6.3100    -7.3880    18.8850 ca         1 A1A       0.162500
     14 S            9.4240   -10.8320    13.2620 sy         1 A1A       1.051500
     15 O1           9.9860   -12.1490    13.5890 o          1 A1A      -0.521500
     16 C14          9.9310   -10.4010    11.5850 c6         1 A1A      -0.306400
     17 C16         10.8840    -8.1340    12.2490 c6         1 A1A      -0.049100
     18 C11         10.8250    -8.4340    13.7570 ca         1 A1A       0.013700
     19 C9          11.4430    -7.7320    16.0190 ca         1 A1A      -0.031000
     20 C12         10.2330    -9.6020    14.3000 ca         1 A1A      -0.246500
     21 C19         13.0850   -10.4420    17.8540 c3         1 A1A      -0.088100
     22 C18         11.7690   -10.5710    20.0210 c3         1 A1A      -0.088100
     23 N2           8.9700    -6.9140    18.3380 nb         1 A1A      -0.303000
     24 N4           5.0510    -7.8840    19.1840 na         1 A1A      -0.310400
     25 C3           5.1780    -9.2940    19.3640 cd         1 A1A      -0.166300
     26 C2           4.1270   -10.3040    19.6990 c          1 A1A       0.636300
     27 O            4.3500   -11.5000    19.8310 o          1 A1A      -0.589100
     28 N            2.8670    -9.7660    19.8440 ns         1 A1A      -0.506900
     29 C1           1.6680   -10.5290    20.1990 c3         1 A1A       0.103000
     30 C            1.6060   -10.8400    21.7040 c3         1 A1A      -0.118100
     31 H9           9.1330   -10.1100    18.8090 hn         1 A1A       0.500000
     32 H8           6.9170   -10.6450    19.2460 ha         1 A1A       0.219000
     33 H           11.3850    -8.2690    18.5480 h1         1 A1A       0.083700
     34 H11         11.8990    -6.6150    14.2350 ha         1 A1A       0.116000
     35 H12          9.7830   -10.7120    16.1060 ha         1 A1A       0.128000
     36 H15         10.0400    -8.6410    10.3120 hc         1 A1A       0.066700
     37 H16          8.8370    -8.5080    11.5880 hc         1 A1A       0.066700
     38 H19         11.1260   -11.2780    18.0950 hc         1 A1A       0.052700
     39 H26          8.3430    -4.9350    18.1620 h5         1 A1A       0.043100
     40 H13         10.9590   -10.7690    11.4710 h1         1 A1A       0.106200
     41 H14          9.2620   -10.9520    10.9130 h1         1 A1A       0.106200
     42 H17         11.8940    -8.3720    11.8870 hc         1 A1A       0.063700
     43 H18         10.7630    -7.0540    12.0890 hc         1 A1A       0.063700
     44 H10         11.9150    -7.0010    16.6720 ha         1 A1A       0.122000
     45 H24         13.6260   -11.3420    18.1690 hc         1 A1A       0.039033
     46 H23         13.0350   -10.4570    16.7580 hc         1 A1A       0.039033
     47 H25         13.6700    -9.5670    18.1600 hc         1 A1A       0.039033
     48 H21         12.3260   -11.4800    20.2770 hc         1 A1A       0.039033
     49 H22         12.2860    -9.7150    20.4710 hc         1 A1A       0.039033
     50 H20         10.7770   -10.6520    20.4810 hc         1 A1A       0.039033
     51 H1           4.2080    -7.3260    19.2550 hn         1 A1A       0.360000
     52 H7           2.7800    -8.7680    19.7110 hn         1 A1A       0.307500
     53 H6           1.6540   -11.4660    19.6260 h1         1 A1A       0.055200
     54 H5           0.7840    -9.9450    19.9110 h1         1 A1A       0.055200
     55 H4           0.6900   -11.3950    21.9390 hc         1 A1A       0.043033
     56 H3           2.4640   -11.4480    22.0130 hc         1 A1A       0.043033
     57 H2           1.6070    -9.9140    22.2910 hc         1 A1A       0.043033
     58 O2           7.9760   -10.6070    13.3580 o          1 A1A      -0.521500
@<TRIPOS>BOND
     1     1     5 1   
     2     1     6 1   
     3     1    31 1   
     4     2    12 ar  
     5     2    13 ar  
     6     3     4 1   
     7     3    25 2   
     8     3    32 1   
     9     4     5 ar  
    10     4    13 ar  
    11     5    23 ar  
    12     6     7 1   
    13     6    11 1   
    14     6    33 1   
    15     7     9 ar  
    16     7    19 ar  
    17     8    18 ar  
    18     8    19 ar  
    19     8    34 1   
    20     9    20 ar  
    21     9    35 1   
    22    10    16 1   
    23    10    17 1   
    24    10    36 1   
    25    10    37 1   
    26    11    21 1   
    27    11    22 1   
    28    11    38 1   
    29    12    23 ar  
    30    12    39 1   
    31    13    24 1   
    32    14    15 2   
    33    14    16 1   
    34    14    20 1   
    35    14    58 2   
    36    16    40 1   
    37    16    41 1   
    38    17    18 1   
    39    17    42 1   
    40    17    43 1   
    41    18    20 ar  
    42    19    44 1   
    43    21    45 1   
    44    21    46 1   
    45    21    47 1   
    46    22    48 1   
    47    22    49 1   
    48    22    50 1   
    49    24    25 1   
    50    24    51 1   
    51    25    26 1   
    52    26    27 2   
    53    26    28 1   
    54    28    29 1   
    55    28    52 1   
    56    29    30 1   
    57    29    53 1   
    58    29    54 1   
    59    30    55 1   
    60    30    56 1   
    61    30    57 1   
@<TRIPOS>SUBSTRUCTURE
     1 A1A         1 TEMP              0 ****  ****    0 ROOT
