@<TRIPOS>MOLECULE
A1A
   31    32     1     0     0
SMALL
No Charge or Current Charge


@<TRIPOS>ATOM
      1 N1          21.8650    12.9330    -0.2420 nc         1 A1A      -0.356000
      2 N3          23.6780    12.4610     0.9110 na         1 A1A      -0.367000
      3 C4          22.3590    12.8240     0.9870 cd         1 A1A       0.359800
      4 C5          23.9750    12.3760    -0.4180 cd         1 A1A       0.390800
      5 C6          25.3250    11.9870    -0.9700 c6         1 A1A      -0.104700
      6 C7          26.4140    12.0930     0.1360 c6         1 A1A      -0.081400
      7 C8          25.9050    11.5140     1.4880 c6         1 A1A      -0.092400
      8 N           20.3840    13.9240     2.0800 ns         1 A1A      -0.494900
      9 C           18.6300    16.7410     3.0130 c3         1 A1A      -0.094100
     10 O           19.8150    14.0950     4.2740 o          1 A1A      -0.602100
     11 C1          18.4050    15.2490     2.6800 c3         1 A1A      -0.161400
     12 C2          19.5950    14.3840     3.1060 c          1 A1A       0.610100
     13 C3          21.5690    13.0660     2.2590 c3         1 A1A       0.084700
     14 C9          24.6490    12.2700     2.0070 c6         1 A1A       0.078600
     15 N2          22.8910    12.6450    -1.1320 nc         1 A1A      -0.361000
     16 H9          25.2800    10.9560    -1.3450 hc         1 A1A       0.072200
     17 H8          25.5920    12.6210    -1.8260 hc         1 A1A       0.072200
     18 H10         27.3260    11.5690    -0.1840 hc         1 A1A       0.052200
     19 H11         26.6940    13.1470     0.2760 hc         1 A1A       0.052200
     20 H13         25.6620    10.4500     1.3590 hc         1 A1A       0.058700
     21 H12         26.7010    11.5610     2.2430 hc         1 A1A       0.058700
     22 H5          20.1260    14.2010     1.1390 hn         1 A1A       0.324500
     23 H           17.7650    17.3380     2.7000 hc         1 A1A       0.038367
     24 H2          18.7710    16.8820     4.0920 hc         1 A1A       0.038367
     25 H1          19.5180    17.1240     2.4960 hc         1 A1A       0.038367
     26 H4          17.5130    14.9070     3.2180 hc         1 A1A       0.074700
     27 H3          18.2420    15.1590     1.5990 hc         1 A1A       0.074700
     28 H6          22.2290    13.5320     3.0010 h1         1 A1A       0.062700
     29 H7          21.2440    12.0960     2.6580 h1         1 A1A       0.062700
     30 H15         24.1840    11.7090     2.8310 h1         1 A1A       0.056700
     31 H14         24.9450    13.2570     2.3910 h1         1 A1A       0.056700
@<TRIPOS>BOND
     1     1     3 2   
     2     1    15 1   
     3     2     3 1   
     4     2     4 1   
     5     2    14 1   
     6     3    13 1   
     7     4     5 1   
     8     4    15 2   
     9     5     6 1   
    10     5    16 1   
    11     5    17 1   
    12     6     7 1   
    13     6    18 1   
    14     6    19 1   
    15     7    14 1   
    16     7    20 1   
    17     7    21 1   
    18     8    12 1   
    19     8    13 1   
    20     8    22 1   
    21     9    11 1   
    22     9    23 1   
    23     9    24 1   
    24     9    25 1   
    25    10    12 2   
    26    11    12 1   
    27    11    26 1   
    28    11    27 1   
    29    13    28 1   
    30    13    29 1   
    31    14    30 1   
    32    14    31 1   
@<TRIPOS>SUBSTRUCTURE
     1 A1A         1 TEMP              0 ****  ****    0 ROOT
