@<TRIPOS>MOLECULE
A1A
   57    60     1     0     0
SMALL
No Charge or Current Charge


@<TRIPOS>ATOM
      1 N1           4.5290   -15.8250    17.4080 nu         1 A1A      -0.916100
      2 N3           5.0160   -14.0270    15.9760 nb         1 A1A      -0.302000
      3 C4           7.4820   -16.6360    17.1050 cc         1 A1A      -0.118200
      4 C5           6.7740   -15.5320    16.5260 ca         1 A1A      -0.274800
      5 C6           5.4400   -15.1220    16.6340 ca         1 A1A       0.443900
      6 C7           3.1750   -15.4010    17.7960 c3         1 A1A       0.287800
      7 C8           3.2790   -14.1970    18.7370 ca         1 A1A      -0.111300
      8 C10          2.8020   -11.8550    19.2230 ca         1 A1A      -0.131000
      9 C13          3.9360   -14.3030    19.9800 ca         1 A1A      -0.009000
     10 C15          3.5290   -10.7280    21.3680 c6         1 A1A      -0.048100
     11 C20          7.6490   -14.8130    15.7520 ca         1 A1A       0.161500
     12 S            4.8780   -13.4070    22.4190 sy         1 A1A       1.125600
     13 O1           4.0090   -14.1440    23.3400 o          1 A1A      -0.538500
     14 N2           4.9830   -11.8590    23.0350 n7         1 A1A      -0.858300
     15 C14          3.7540   -11.0690    22.8510 c6         1 A1A       0.187800
     16 C11          3.4480   -11.9610    20.4690 ca         1 A1A       0.018700
     17 C9           2.7160   -12.9630    18.3640 ca         1 A1A      -0.031000
     18 C12          4.0220   -13.1950    20.8460 ca         1 A1A      -0.249500
     19 C16          2.3850   -16.5960    18.4160 c3         1 A1A      -0.070700
     20 C18          1.0050   -16.1580    18.9700 c3         1 A1A      -0.088100
     21 C19          5.9430   -13.3760    15.2350 ca         1 A1A       0.187900
     22 N4           7.2470   -13.7140    15.0880 nb         1 A1A      -0.235000
     23 N5           8.8990   -15.4090    15.8050 na         1 A1A      -0.310400
     24 C3           8.7930   -16.5520    16.6540 cd         1 A1A      -0.165300
     25 C2           9.8450   -17.5400    17.0460 c          1 A1A       0.637300
     26 O            9.6410   -18.4920    17.7880 o          1 A1A      -0.589100
     27 N           11.0810   -17.2810    16.4960 ns         1 A1A      -0.506900
     28 C1          12.2730   -18.1080    16.6950 c3         1 A1A       0.103000
     29 C           12.2520   -19.3730    15.8200 c3         1 A1A      -0.117100
     30 H9           4.8980   -16.6590    17.8540 hn         1 A1A       0.499000
     31 H8           7.0950   -17.4060    17.7720 ha         1 A1A       0.220000
     32 H            2.6270   -15.0890    16.8950 h1         1 A1A       0.085700
     33 H11          2.3650   -10.9080    18.9160 ha         1 A1A       0.115000
     34 H12          4.3830   -15.2520    20.2720 ha         1 A1A       0.126000
     35 H16          2.6070   -10.1380    21.2760 hc         1 A1A       0.071700
     36 H17          4.3430   -10.0800    21.0180 hc         1 A1A       0.071700
     37 H20          1.6480   -18.5900    17.8760 hc         1 A1A       0.039200
     38 H19          1.6490   -17.4360    16.5260 hc         1 A1A       0.039200
     39 H21          3.1710   -18.1640    17.0840 hc         1 A1A       0.039200
     40 H13          5.1110   -12.0630    24.0260 hn         1 A1A       0.482000
     41 H14          2.8810   -11.6140    23.2450 h1         1 A1A       0.059200
     42 H15          3.8360   -10.1320    23.4220 h1         1 A1A       0.059200
     43 H10          2.2120   -12.8580    17.4060 ha         1 A1A       0.122000
     44 H18          2.9620   -16.9830    19.2660 hc         1 A1A       0.050700
     45 H22          0.4630   -17.0170    19.3840 hc         1 A1A       0.039200
     46 H23          1.1140   -15.4210    19.7750 hc         1 A1A       0.039200
     47 H24          0.3900   -15.7140    18.1790 hc         1 A1A       0.039200
     48 H25          5.6070   -12.4890    14.7020 h5         1 A1A       0.043100
     49 H1           9.7230   -15.0750    15.3190 hn         1 A1A       0.359000
     50 H7          11.1540   -16.4690    15.9000 hn         1 A1A       0.306500
     51 H5          12.3430   -18.3920    17.7540 h1         1 A1A       0.055200
     52 H6          13.1600   -17.5090    16.4480 h1         1 A1A       0.055200
     53 H2          13.1650   -19.9590    15.9790 hc         1 A1A       0.043367
     54 H3          11.3910   -20.0050    16.0670 hc         1 A1A       0.043367
     55 H4          12.1950   -19.1070    14.7580 hc         1 A1A       0.043367
     56 C17          2.2040   -17.7660    17.4130 c3         1 A1A      -0.088100
     57 O2           6.2510   -13.8400    22.1480 o          1 A1A      -0.538500
@<TRIPOS>BOND
     1     1     5 1   
     2     1     6 1   
     3     1    30 1   
     4     2     5 ar  
     5     2    21 ar  
     6     3     4 1   
     7     3    24 2   
     8     3    31 1   
     9     4     5 ar  
    10     4    11 ar  
    11     6     7 1   
    12     6    19 1   
    13     6    32 1   
    14     7     9 ar  
    15     7    17 ar  
    16     8    16 ar  
    17     8    17 ar  
    18     8    33 1   
    19     9    18 ar  
    20     9    34 1   
    21    10    15 1   
    22    10    16 1   
    23    10    35 1   
    24    10    36 1   
    25    11    22 ar  
    26    11    23 1   
    27    12    13 2   
    28    12    14 1   
    29    12    18 1   
    30    12    57 2   
    31    14    15 1   
    32    14    40 1   
    33    15    41 1   
    34    15    42 1   
    35    16    18 ar  
    36    17    43 1   
    37    19    20 1   
    38    19    44 1   
    39    19    56 1   
    40    20    45 1   
    41    20    46 1   
    42    20    47 1   
    43    21    22 ar  
    44    21    48 1   
    45    23    24 1   
    46    23    49 1   
    47    24    25 1   
    48    25    26 2   
    49    25    27 1   
    50    27    28 1   
    51    27    50 1   
    52    28    29 1   
    53    28    51 1   
    54    28    52 1   
    55    29    53 1   
    56    29    54 1   
    57    29    55 1   
    58    37    56 1   
    59    38    56 1   
    60    39    56 1   
@<TRIPOS>SUBSTRUCTURE
     1 A1A         1 TEMP              0 ****  ****    0 ROOT
