@<TRIPOS>MOLECULE
A1A
   47    50     1     0     0
SMALL
No Charge or Current Charge


@<TRIPOS>ATOM
      1 N1           4.4080   -14.1130    16.2330 nb         1 A1A      -0.297000
      2 N3           8.2290   -15.4500    16.7320 na         1 A1A      -0.411300
      3 C4           4.7450   -15.2000    16.9580 ca         1 A1A       0.447900
      4 C5           5.4300   -13.4430    15.6450 ca         1 A1A       0.179900
      5 C6           7.0480   -14.8420    16.4400 ca         1 A1A       0.123500
      6 C7           7.9700   -16.5550    17.5390 cc         1 A1A       0.402700
      7 C8           6.0950   -15.5930    17.0770 ca         1 A1A      -0.095600
      8 C10          1.9110   -13.0290    18.4220 ca         1 A1A      -0.030000
      9 C13          3.0270   -13.2970    20.9900 ca         1 A1A      -0.248500
     10 C15          3.3130   -12.0570    23.5370 c6         1 A1A      -0.306400
     11 C17          2.4910   -10.7950    21.4830 c6         1 A1A      -0.049100
     12 S            3.7730   -13.5370    22.6120 sy         1 A1A       1.051500
     13 O            5.2320   -13.5120    22.4350 o          1 A1A      -0.522000
     14 C16          3.4880   -10.7970    22.6640 c6         1 A1A      -0.055400
     15 C12          2.5130   -12.0420    20.5800 ca         1 A1A       0.013700
     16 C11          1.9540   -11.9280    19.2920 ca         1 A1A      -0.132000
     17 C14          2.9820   -14.4000    20.1130 ca         1 A1A      -0.006000
     18 C9           2.4220   -14.2750    18.8260 ca         1 A1A      -0.111300
     19 C3           2.3670   -15.4710    17.8710 c3         1 A1A       0.288800
     20 C1           1.5070   -16.6530    18.4190 c3         1 A1A      -0.070700
     21 C2           1.3810   -17.8120    17.3960 c3         1 A1A      -0.088600
     22 C            0.0980   -16.1900    18.8680 c3         1 A1A      -0.088600
     23 N            3.7370   -15.9190    17.5870 nu         1 A1A      -0.911100
     24 N4           6.6500   -16.6750    17.7740 nd         1 A1A      -0.552100
     25 N2           6.7470   -13.7530    15.7110 nb         1 A1A      -0.216000
     26 H1           9.1440   -15.1550    16.4200 hn         1 A1A       0.370000
     27 H10          5.1640   -12.5650    15.0600 h5         1 A1A       0.044100
     28 H11          8.7530   -17.2070    17.9090 h5         1 A1A       0.066800
     29 H12          1.4760   -12.9100    17.4320 ha         1 A1A       0.123000
     30 H16          2.2670   -12.1960    23.8370 h1         1 A1A       0.105700
     31 H15          3.9560   -12.0400    24.4250 h1         1 A1A       0.105700
     32 H19          1.4730   -10.6710    21.8770 hc         1 A1A       0.063700
     33 H20          2.6790    -9.9020    20.8710 hc         1 A1A       0.063700
     34 H17          3.3260    -9.8990    23.2760 hc         1 A1A       0.066200
     35 H18          4.5190   -10.7300    22.2870 hc         1 A1A       0.066200
     36 H13          1.5450   -10.9760    18.9620 ha         1 A1A       0.116000
     37 H14          3.3870   -15.3590    20.4300 ha         1 A1A       0.130000
     38 H            1.8990   -15.1400    16.9320 h1         1 A1A       0.082700
     39 H5           2.0080   -17.0560    19.3070 hc         1 A1A       0.053700
     40 H6           2.3630   -18.2280    17.1400 hc         1 A1A       0.039033
     41 H8           0.7750   -18.6280    17.8080 hc         1 A1A       0.039033
     42 H7           0.9040   -17.4660    16.4710 hc         1 A1A       0.039033
     43 H2           0.1590   -15.4600    19.6840 hc         1 A1A       0.039033
     44 H3          -0.4460   -15.7280    18.0340 hc         1 A1A       0.039033
     45 H4          -0.4920   -17.0400    19.2320 hc         1 A1A       0.039033
     46 H9           4.0880   -16.7200    18.1100 hn         1 A1A       0.513000
     47 O1           3.1300   -14.6950    23.2470 o          1 A1A      -0.522000
@<TRIPOS>BOND
     1     1     3 ar  
     2     1     4 ar  
     3     2     5 1   
     4     2     6 1   
     5     2    26 1   
     6     3     7 ar  
     7     3    23 1   
     8     4    25 ar  
     9     4    27 1   
    10     5     7 ar  
    11     5    25 ar  
    12     6    24 2   
    13     6    28 1   
    14     7    24 1   
    15     8    16 ar  
    16     8    18 ar  
    17     8    29 1   
    18     9    12 1   
    19     9    15 ar  
    20     9    17 ar  
    21    10    12 1   
    22    10    14 1   
    23    10    30 1   
    24    10    31 1   
    25    11    14 1   
    26    11    15 1   
    27    11    32 1   
    28    11    33 1   
    29    12    13 2   
    30    12    47 2   
    31    14    34 1   
    32    14    35 1   
    33    15    16 ar  
    34    16    36 1   
    35    17    18 ar  
    36    17    37 1   
    37    18    19 1   
    38    19    20 1   
    39    19    23 1   
    40    19    38 1   
    41    20    21 1   
    42    20    22 1   
    43    20    39 1   
    44    21    40 1   
    45    21    41 1   
    46    21    42 1   
    47    22    43 1   
    48    22    44 1   
    49    22    45 1   
    50    23    46 1   
@<TRIPOS>SUBSTRUCTURE
     1 A1A         1 TEMP              0 ****  ****    0 ROOT
