@<TRIPOS>MOLECULE
A1A
   49    51     1     0     0
SMALL
abcg2


@<TRIPOS>ATOM
      1 N1           8.9610    -9.2010    18.3300 nu         1 A1A      -0.914100
      2 N3          11.5920    -6.8130    13.5840 nv         1 A1A      -1.057900
      3 C4           5.9760    -9.6810    19.2570 cc         1 A1A      -0.121200
      4 C5           6.7080    -8.5380    18.8470 ca         1 A1A      -0.279800
      5 C6           8.0220    -8.2490    18.4120 ca         1 A1A       0.446900
      6 C7          10.2920    -8.9890    17.8000 c3         1 A1A       0.284800
      7 C8          10.2670    -8.8790    16.2920 ca         1 A1A      -0.020300
      8 C10          9.6430    -9.6830    14.1420 ca         1 A1A       0.381900
      9 C13         11.2150   -10.1220    18.2860 c3         1 A1A      -0.069700
     10 C15         12.6040   -10.0110    17.6690 c3         1 A1A      -0.089100
     11 C17          5.8370    -7.4440    18.8980 ca         1 A1A       0.162500
     12 O            3.7000   -11.3250    19.9420 o          1 A1A      -0.592100
     13 N            2.5200    -9.4830    20.5190 ns         1 A1A      -0.505900
     14 C1           1.3750   -10.1990    21.0460 c3         1 A1A       0.102000
     15 C            1.5380   -10.6080    22.5020 c3         1 A1A      -0.118100
     16 C3           4.7080    -9.2510    19.5460 cd         1 A1A      -0.169300
     17 N6           4.6360    -7.8890    19.3300 na         1 A1A      -0.310400
     18 N5           6.1420    -6.1860    18.5690 nb         1 A1A      -0.239000
     19 C16          7.3940    -6.0550    18.1810 ca         1 A1A       0.190900
     20 N4           8.3340    -6.9960    18.0850 nb         1 A1A      -0.300000
     21 C14         11.3150   -10.1170    19.8090 c3         1 A1A      -0.089100
     22 C12         10.9250    -7.8510    15.6530 ca         1 A1A      -0.207000
     23 C11         10.9120    -7.7920    14.2480 ca         1 A1A       0.593900
     24 N2          10.2750    -8.6980    13.5100 nb         1 A1A      -0.741000
     25 C9           9.6010    -9.8290    15.5130 ca         1 A1A      -0.213000
     26 H9           8.6820   -10.1500    18.5240 hn         1 A1A       0.498000
     27 H12         11.3250    -6.6540    12.6270 hn         1 A1A       0.470500
     28 H13         11.8260    -5.9770    14.0920 hn         1 A1A       0.470500
     29 H8           6.3270   -10.6960    19.3480 ha         1 A1A       0.217000
     30 H           10.6760    -8.0480    18.2060 h1         1 A1A       0.085700
     31 H11          9.1350   -10.4010    13.5070 h4         1 A1A       0.015100
     32 H15         10.7740   -11.0750    17.9650 hc         1 A1A       0.048700
     33 H20         13.2540   -10.7890    18.0710 hc         1 A1A       0.039533
     34 H19         12.5890   -10.1210    16.5850 hc         1 A1A       0.039533
     35 H21         13.0590    -9.0470    17.9040 hc         1 A1A       0.039533
     36 H7           2.5570    -8.4960    20.7130 hn         1 A1A       0.307500
     37 H6           1.1920   -11.0730    20.4240 h1         1 A1A       0.055700
     38 H5           0.5090    -9.5460    20.9350 h1         1 A1A       0.055700
     39 H4           0.6410   -11.1210    22.8510 hc         1 A1A       0.043700
     40 H2           2.3830   -11.2840    22.6310 hc         1 A1A       0.043700
     41 H3           1.6950    -9.7380    23.1400 hc         1 A1A       0.043700
     42 H1           3.8120    -7.3100    19.3770 hn         1 A1A       0.360000
     43 H22          7.7070    -5.0550    17.9010 h5         1 A1A       0.043100
     44 H17         11.9550   -10.9320    20.1500 hc         1 A1A       0.039533
     45 H18         11.7560    -9.1810    20.1600 hc         1 A1A       0.039533
     46 H16         10.3480   -10.2350    20.2960 hc         1 A1A       0.039533
     47 H14         11.4460    -7.0900    16.2240 ha         1 A1A       0.123000
     48 H10          9.0590   -10.6520    15.9590 ha         1 A1A       0.119000
     49 C2           3.6020   -10.1070    20.0220 c          1 A1A       0.636300
@<TRIPOS>BOND
     1     1     5 1   
     2     1     6 1   
     3     1    26 1   
     4     2    23 1   
     5     2    27 1   
     6     2    28 1   
     7     3     4 1   
     8     3    16 2   
     9     3    29 1   
    10     4     5 ar  
    11     4    11 ar  
    12     5    20 ar  
    13     6     7 1   
    14     6     9 1   
    15     6    30 1   
    16     7    22 ar  
    17     7    25 ar  
    18     8    24 ar  
    19     8    25 ar  
    20     8    31 1   
    21     9    10 1   
    22     9    21 1   
    23     9    32 1   
    24    10    33 1   
    25    10    34 1   
    26    10    35 1   
    27    11    17 1   
    28    11    18 ar  
    29    12    49 2   
    30    13    14 1   
    31    13    36 1   
    32    13    49 1   
    33    14    15 1   
    34    14    37 1   
    35    14    38 1   
    36    15    39 1   
    37    15    40 1   
    38    15    41 1   
    39    16    17 1   
    40    16    49 1   
    41    17    42 1   
    42    18    19 ar  
    43    19    20 ar  
    44    19    43 1   
    45    21    44 1   
    46    21    45 1   
    47    21    46 1   
    48    22    23 ar  
    49    22    47 1   
    50    23    24 ar  
    51    25    48 1   
@<TRIPOS>SUBSTRUCTURE
     1 A1A         1 TEMP              0 ****  ****    0 ROOT
