@<TRIPOS>MOLECULE
A1A
   33    34     1     0     0
SMALL
No Charge or Current Charge


@<TRIPOS>ATOM
      1 N1           8.8820    20.7680    27.8870 nh         1 A1A      -0.764300
      2 N3           8.2440    19.1990    29.5440 nb         1 A1A      -0.251500
      3 C4           8.5250    21.7960    26.8470 c6         1 A1A       0.230300
      4 C5          10.2670    20.8950    28.4600 c6         1 A1A       0.230300
      5 C6          11.3900    21.2830    27.4290 c6         1 A1A       0.157800
      6 C7           7.8970    19.9190    28.4540 ca         1 A1A       0.392900
      7 C8           5.7480    19.0950    28.3880 ca         1 A1A       0.153900
      8 C10          7.3030    18.3960    30.0750 ca         1 A1A       0.153900
      9 N           10.9590    22.0480    26.2040 n3         1 A1A      -0.731600
     10 C           13.3140    22.0090    25.2740 c3         1 A1A      -0.092100
     11 C1          12.0550    22.8580    25.5870 c3         1 A1A       0.195500
     12 C2          11.6190    23.6030    24.2990 c3         1 A1A      -0.092100
     13 C3           9.6840    22.7790    26.4810 c6         1 A1A       0.157800
     14 C9           6.0180    18.3110    29.5190 ca         1 A1A      -0.296000
     15 N2           6.6860    19.9000    27.8530 nb         1 A1A      -0.251500
     16 H9           7.6650    22.3940    27.1830 h1         1 A1A       0.058700
     17 H10          8.2200    21.2810    25.9240 h1         1 A1A       0.058700
     18 H11         10.2500    21.6650    29.2460 h1         1 A1A       0.058700
     19 H12         10.5850    19.9620    28.9480 h1         1 A1A       0.058700
     20 H13         12.1500    21.8520    27.9840 h1         1 A1A       0.039200
     21 H14         11.8810    20.3540    27.1060 h1         1 A1A       0.039200
     22 H15          4.7730    19.0800    27.9030 h4         1 A1A       0.017100
     23 H17          7.5840    17.8160    30.9530 h4         1 A1A       0.017100
     24 H1          13.7620    21.5990    26.1850 hc         1 A1A       0.038700
     25 H           13.0640    21.1770    24.6040 hc         1 A1A       0.038700
     26 H2          14.0830    22.6210    24.7860 hc         1 A1A       0.038700
     27 H3          12.3640    23.6290    26.3070 h1         1 A1A       0.015700
     28 H4          10.8980    24.3970    24.5190 hc         1 A1A       0.038700
     29 H5          12.4800    24.0830    23.8180 hc         1 A1A       0.038700
     30 H6          11.1710    22.9080    23.5800 hc         1 A1A       0.038700
     31 H7           9.8270    23.4960    27.3040 h1         1 A1A       0.039200
     32 H8           9.3480    23.3540    25.6090 h1         1 A1A       0.039200
     33 H16          5.2600    17.6620    29.9490 ha         1 A1A       0.133000
@<TRIPOS>BOND
     1     1     3 1   
     2     1     4 1   
     3     1     6 1   
     4     2     6 ar  
     5     2     8 ar  
     6     3    13 1   
     7     3    16 1   
     8     3    17 1   
     9     4     5 1   
    10     4    18 1   
    11     4    19 1   
    12     5     9 1   
    13     5    20 1   
    14     5    21 1   
    15     6    15 ar  
    16     7    14 ar  
    17     7    15 ar  
    18     7    22 1   
    19     8    14 ar  
    20     8    23 1   
    21     9    11 1   
    22     9    13 1   
    23    10    11 1   
    24    10    24 1   
    25    10    25 1   
    26    10    26 1   
    27    11    12 1   
    28    11    27 1   
    29    12    28 1   
    30    12    29 1   
    31    12    30 1   
    32    13    31 1   
    33    13    32 1   
    34    14    33 1   
@<TRIPOS>SUBSTRUCTURE
     1 A1A         1 TEMP              0 ****  ****    0 ROOT
