@<TRIPOS>MOLECULE
A1A
   32    32     1     0     0
SMALL
abcg2


@<TRIPOS>ATOM
      1 N1           7.4760    14.3290     5.3420 n3         1 A1A      -0.765500
      2 C4           5.0220    12.0080     3.3270 c6         1 A1A       0.161800
      3 C5           3.5150    12.1710     3.3780 c6         1 A1A       0.155600
      4 C6           7.9850    15.6450     4.9900 c3         1 A1A       0.200600
      5 C7           6.6550    14.2690     6.5400 c3         1 A1A       0.200600
      6 N            5.6250    13.2220     3.8810 n3         1 A1A      -0.755500
      7 O            3.0910    13.3250     2.6940 os         1 A1A      -0.444000
      8 C1           3.1260    15.6980     2.4870 c3         1 A1A      -0.071400
      9 C2           3.6550    14.4950     3.2450 c6         1 A1A       0.168300
     10 C3           5.1760    14.4270     3.1850 c6         1 A1A       0.152800
     11 O1           7.4730    11.8730     4.8480 o          1 A1A      -0.552000
     12 O2           8.0610    13.5100     3.0590 o          1 A1A      -0.552000
     13 S            7.2550    13.1620     4.2190 s6         1 A1A       1.287200
     14 H9           5.3030    11.1450     3.9280 h1         1 A1A       0.067700
     15 H11          3.0410    11.3120     2.9000 h1         1 A1A       0.054700
     16 H10          3.1890    12.2000     4.4270 h1         1 A1A       0.054700
     17 H12          8.5860    16.0070     5.8230 h1         1 A1A       0.048533
     18 H14          8.6210    15.5940     4.1130 h1         1 A1A       0.048533
     19 H13          7.1840    16.3660     4.8070 h1         1 A1A       0.048533
     20 H15          7.2120    14.7220     7.3600 h1         1 A1A       0.048533
     21 H16          5.7110    14.8060     6.4200 h1         1 A1A       0.048533
     22 H17          6.4410    13.2400     6.8160 h1         1 A1A       0.048533
     23 H2           1.2870    16.7550     2.0640 hc         1 A1A       0.037700
     24 H            1.0990    15.0070     2.0910 hc         1 A1A       0.037700
     25 H1           1.2740    15.8990     3.6010 hc         1 A1A       0.037700
     26 H3           3.4460    15.6400     1.4430 hc         1 A1A       0.046200
     27 H4           3.6010    16.5880     2.9070 hc         1 A1A       0.046200
     28 H5           3.3640    14.5800     4.3050 h1         1 A1A       0.042700
     29 H7           5.5100    14.4350     2.1400 h1         1 A1A       0.056200
     30 H6           5.5770    15.3130     3.6780 h1         1 A1A       0.056200
     31 H8           5.3480    11.8330     2.2950 h1         1 A1A       0.067700
     32 C            1.6120    15.8440     2.5650 c3         1 A1A      -0.084100
@<TRIPOS>BOND
     1     1     4 1   
     2     1     5 1   
     3     1    13 1   
     4     2     3 1   
     5     2     6 1   
     6     2    14 1   
     7     2    31 1   
     8     3     7 1   
     9     3    15 1   
    10     3    16 1   
    11     4    17 1   
    12     4    18 1   
    13     4    19 1   
    14     5    20 1   
    15     5    21 1   
    16     5    22 1   
    17     6    10 1   
    18     6    13 1   
    19     7     9 1   
    20     8     9 1   
    21     8    26 1   
    22     8    27 1   
    23     8    32 1   
    24     9    10 1   
    25     9    28 1   
    26    10    29 1   
    27    10    30 1   
    28    11    13 2   
    29    12    13 2   
    30    23    32 1   
    31    24    32 1   
    32    25    32 1   
@<TRIPOS>SUBSTRUCTURE
     1 A1A         1 TEMP              0 ****  ****    0 ROOT
