@<TRIPOS>MOLECULE
A1A
   54    58     1     0     0
SMALL
No Charge or Current Charge


@<TRIPOS>ATOM
      1 N1           8.9230    -6.7590    18.0400 nb         1 A1A      -0.305000
      2 N3           4.9960    -7.8680    18.6010 na         1 A1A      -0.310400
      3 C4           8.5150    -8.0390    18.1330 ca         1 A1A       0.436900
      4 C5           7.9600    -5.8100    18.1440 ca         1 A1A       0.182900
      5 C6           6.2480    -7.3010    18.4170 ca         1 A1A       0.155500
      6 C7           5.0830    -9.2710    18.6270 cc         1 A1A      -0.005300
      7 C8           3.9630   -10.1600    18.8020 cc         1 A1A      -0.084800
      8 C13          6.4250    -9.5630    18.4560 cd         1 A1A      -0.172200
      9 C15         10.7560    -8.6300    15.9100 ca         1 A1A       0.329300
     10 C17         11.1440    -7.1440    14.0190 ca         1 A1A      -0.081000
     11 C20          9.8920   -10.2690    11.5660 c6         1 A1A       0.120600
     12 C21          9.6640    -8.8220    11.0730 c6         1 A1A       0.115600
     13 N6           5.8600   -13.2770    18.6340 n1         1 A1A      -0.425000
     14 C11          3.9620   -11.5290    18.8400 cd         1 A1A      -0.082000
     15 N5           2.6130   -11.8710    19.0300 na         1 A1A       0.164800
     16 N4           1.7800   -10.7610    19.1110 nd         1 A1A      -0.492800
     17 C9           2.6260    -9.7610    18.9700 cc         1 A1A       0.233900
     18 C14          7.1600    -8.3250    18.3240 ca         1 A1A      -0.259800
     19 N2           6.6330    -6.0150    18.3290 nb         1 A1A      -0.234000
     20 N            9.4610    -9.0470    18.0200 nu         1 A1A      -0.902100
     21 C3          10.8200    -8.9110    17.4350 c3         1 A1A       0.200200
     22 C1          11.6950   -10.1560    17.7930 c3         1 A1A      -0.066700
     23 C2          13.1080   -10.0770    17.1590 c3         1 A1A      -0.086600
     24 C           11.8190   -10.3760    19.3240 c3         1 A1A      -0.086600
     25 N7          10.2260    -9.5960    15.1100 nb         1 A1A      -0.682000
     26 C19         10.1530    -9.3550    13.7860 ca         1 A1A       0.520300
     27 O            9.6380   -10.3550    12.9880 os         1 A1A      -0.436300
     28 O1          10.4880    -7.9100    11.8330 os         1 A1A      -0.323100
     29 C18         10.5910    -8.1340    13.1950 ca         1 A1A       0.012100
     30 C16         11.2220    -7.4000    15.3980 ca         1 A1A      -0.135000
     31 H1           4.1420    -7.3320    18.7000 hn         1 A1A       0.362000
     32 H10          8.2860    -4.7740    18.0700 h5         1 A1A       0.042100
     33 H13          0.9700   -13.1790    19.2860 h1         1 A1A       0.067367
     34 H14          2.2730   -13.7910    18.2260 h1         1 A1A       0.067367
     35 H12          2.5100   -13.7410    19.9990 h1         1 A1A       0.067367
     36 H15          6.8600   -10.5570    18.4280 ha         1 A1A       0.208000
     37 H17         11.4930    -6.2020    13.6020 ha         1 A1A       0.134000
     38 H18         10.9320   -10.5640    11.3680 h1         1 A1A       0.070700
     39 H19          9.2300   -10.9670    11.0340 h1         1 A1A       0.070700
     40 H20          9.9080    -8.7310    10.0060 h1         1 A1A       0.070700
     41 H21          8.6080    -8.5490    11.2100 h1         1 A1A       0.070700
     42 H11          2.2420    -8.7510    18.9940 h4         1 A1A       0.045100
     43 H9           9.0550    -9.9780    17.9840 hn         1 A1A       0.503000
     44 H           11.3150    -8.0470    17.9020 h1         1 A1A       0.088700
     45 H5          11.2040   -11.0450    17.3750 hc         1 A1A       0.065700
     46 H7          13.0540   -10.0480    16.0640 hc         1 A1A       0.036700
     47 H6          13.6390    -9.1810    17.5010 hc         1 A1A       0.036700
     48 H8          13.7060   -10.9540    17.4340 hc         1 A1A       0.036700
     49 H3          10.8400   -10.5540    19.7840 hc         1 A1A       0.036700
     50 H4          12.4470   -11.2480    19.5410 hc         1 A1A       0.036700
     51 H2          12.2710    -9.5010    19.8070 hc         1 A1A       0.036700
     52 H16         11.6350    -6.6500    16.0680 ha         1 A1A       0.137000
     53 C10          2.0560   -13.2300    19.1420 c3         1 A1A       0.065900
     54 C12          5.0140   -12.4770    18.7250 ch         1 A1A       0.342000
@<TRIPOS>BOND
     1     1     3 ar  
     2     1     4 ar  
     3     2     5 1   
     4     2     6 1   
     5     2    31 1   
     6     3    18 ar  
     7     3    20 1   
     8     4    19 ar  
     9     4    32 1   
    10     5    18 ar  
    11     5    19 ar  
    12     6     7 1   
    13     6     8 2   
    14     7    14 2   
    15     7    17 1   
    16     8    18 1   
    17     8    36 1   
    18     9    21 1   
    19     9    25 ar  
    20     9    30 ar  
    21    10    29 ar  
    22    10    30 ar  
    23    10    37 1   
    24    11    12 1   
    25    11    27 1   
    26    11    38 1   
    27    11    39 1   
    28    12    28 1   
    29    12    40 1   
    30    12    41 1   
    31    13    54 3   
    32    14    15 1   
    33    14    54 1   
    34    15    16 1   
    35    15    53 1   
    36    16    17 2   
    37    17    42 1   
    38    20    21 1   
    39    20    43 1   
    40    21    22 1   
    41    21    44 1   
    42    22    23 1   
    43    22    24 1   
    44    22    45 1   
    45    23    46 1   
    46    23    47 1   
    47    23    48 1   
    48    24    49 1   
    49    24    50 1   
    50    24    51 1   
    51    25    26 ar  
    52    26    27 1   
    53    26    29 ar  
    54    28    29 1   
    55    30    52 1   
    56    33    53 1   
    57    34    53 1   
    58    35    53 1   
@<TRIPOS>SUBSTRUCTURE
     1 A1A         1 TEMP              0 ****  ****    0 ROOT
