@<TRIPOS>MOLECULE
A1A
   27    28     1     0     0
SMALL
abcg2


@<TRIPOS>ATOM
      1 C4           9.8830    13.9020    23.4690 ca         1 A1A       0.170100
      2 C5           9.0210    14.0430    24.5580 ca         1 A1A      -0.160000
      3 C6           8.6160    12.9250    25.2650 ca         1 A1A      -0.049000
      4 C7           9.0510    11.6510    24.9150 ca         1 A1A      -0.189000
      5 C8           9.9020    11.5470    23.8360 ca         1 A1A       0.208000
      6 C10         11.0250    16.3660    21.0920 c          1 A1A       0.571000
      7 N           12.1560    17.0160    21.4050 n          1 A1A      -0.410800
      8 C           12.4140    18.3950    21.0890 c3         1 A1A       0.094300
      9 O           10.2190    15.0370    22.8270 os         1 A1A      -0.325100
     10 C1          13.0510    16.2710    22.2670 c5         1 A1A       0.102000
     11 C2          12.5660    14.8310    22.1150 c5         1 A1A      -0.124400
     12 C3          11.1030    14.9730    21.7200 c5         1 A1A       0.081300
     13 C9          10.3340    12.6370    23.1000 ca         1 A1A      -0.249000
     14 F           10.3440    10.3350    23.4670 f          1 A1A      -0.179000
     15 H8           8.6740    15.0280    24.8400 ha         1 A1A       0.134000
     16 H9           7.9460    13.0450    26.1050 ha         1 A1A       0.120000
     17 H10          8.7380    10.7740    25.4650 ha         1 A1A       0.135000
     18 H2          11.6680    18.7590    20.3870 h1         1 A1A       0.045367
     19 H1          12.3810    19.0150    21.9870 h1         1 A1A       0.045367
     20 H           13.4010    18.4980    20.6370 h1         1 A1A       0.045367
     21 H4          14.0850    16.3980    21.9440 h1         1 A1A       0.051200
     22 H3          12.9790    16.6300    23.2990 h1         1 A1A       0.051200
     23 H6          13.1040    14.3410    21.3020 hc         1 A1A       0.069700
     24 H5          12.7210    14.2380    23.0150 hc         1 A1A       0.069700
     25 H7          10.7710    14.2160    21.0030 h1         1 A1A       0.083700
     26 H11         11.0070    12.4710    22.2700 ha         1 A1A       0.134000
     27 O1          10.0820    16.7950    20.4540 o          1 A1A      -0.524000
@<TRIPOS>BOND
     1     1     2 ar  
     2     1     9 1   
     3     1    13 ar  
     4     2     3 ar  
     5     2    15 1   
     6     3     4 ar  
     7     3    16 1   
     8     4     5 ar  
     9     4    17 1   
    10     5    13 ar  
    11     5    14 1   
    12     6     7 1   
    13     6    12 1   
    14     6    27 2   
    15     7     8 1   
    16     7    10 1   
    17     8    18 1   
    18     8    19 1   
    19     8    20 1   
    20     9    12 1   
    21    10    11 1   
    22    10    21 1   
    23    10    22 1   
    24    11    12 1   
    25    11    23 1   
    26    11    24 1   
    27    12    25 1   
    28    13    26 1   
@<TRIPOS>SUBSTRUCTURE
     1 A1A         1 TEMP              0 ****  ****    0 ROOT
