@<TRIPOS>MOLECULE
A1A
   47    50     1     0     0
SMALL
abcg2


@<TRIPOS>ATOM
      1 N1           4.4890   -14.2130    16.4060 nb         1 A1A      -0.297000
      2 N3           8.2010   -15.6690    16.4410 na         1 A1A      -0.411300
      3 C4           4.7920   -15.3060    17.1100 ca         1 A1A       0.447900
      4 C5           5.4460   -13.6080    15.7030 ca         1 A1A       0.179900
      5 C6           7.0080   -15.0290    16.3030 ca         1 A1A       0.123500
      6 C7           7.9880   -16.7310    17.2650 cc         1 A1A       0.402700
      7 C8           6.1220   -15.7660    17.0760 ca         1 A1A      -0.095600
      8 C10          1.8880   -13.0270    18.5220 ca         1 A1A      -0.030000
      9 C13          3.0010   -13.2110    21.0210 ca         1 A1A      -0.248500
     10 C15          3.2180   -12.0600    23.5450 c6         1 A1A      -0.306400
     11 C17          2.2950   -10.8120    21.5720 c6         1 A1A      -0.049100
     12 S            3.8260   -13.4260    22.5760 sy         1 A1A       1.051500
     13 O            5.2590   -13.2310    22.3550 o          1 A1A      -0.522000
     14 C16          3.2920   -10.7840    22.7210 c6         1 A1A      -0.055400
     15 C12          2.4060   -12.0040    20.6580 ca         1 A1A       0.013700
     16 C11          1.8470   -11.9440    19.3820 ca         1 A1A      -0.132000
     17 C14          3.0440   -14.3060    20.1650 ca         1 A1A      -0.006000
     18 C9           2.4820   -14.2260    18.9030 ca         1 A1A      -0.111300
     19 C3           2.4950   -15.4220    17.9750 c3         1 A1A       0.288800
     20 C1           1.5650   -16.5470    18.4580 c3         1 A1A      -0.070700
     21 C2           1.5250   -17.6900    17.4480 c3         1 A1A      -0.088600
     22 C            0.1570   -16.0160    18.7090 c3         1 A1A      -0.088600
     23 N            3.8380   -15.9380    17.8070 nu         1 A1A      -0.911100
     24 N4           6.7540   -16.8270    17.6710 nd         1 A1A      -0.552100
     25 N2           6.7190   -13.9380    15.5940 nb         1 A1A      -0.216000
     26 H1           9.0780   -15.4120    16.0140 hn         1 A1A       0.370000
     27 H10          5.1300   -12.7270    15.1530 h5         1 A1A       0.044100
     28 H11          8.7880   -17.4040    17.5330 h5         1 A1A       0.066800
     29 H12          1.4490   -12.9420    17.5350 ha         1 A1A       0.123000
     30 H16          2.1950   -12.2940    23.8440 h1         1 A1A       0.105700
     31 H15          3.8480   -12.0280    24.4360 h1         1 A1A       0.105700
     32 H19          1.2810   -10.7950    21.9850 hc         1 A1A       0.063700
     33 H20          2.3930    -9.9020    20.9790 hc         1 A1A       0.063700
     34 H17          3.0690    -9.9400    23.3740 hc         1 A1A       0.066200
     35 H18          4.3080   -10.6310    22.3530 hc         1 A1A       0.066200
     36 H13          1.3780   -11.0230    19.0590 ha         1 A1A       0.116000
     37 H14          3.5150   -15.2280    20.4880 ha         1 A1A       0.130000
     38 H            2.1360   -15.0910    16.9960 h1         1 A1A       0.082700
     39 H5           1.9590   -16.9320    19.4080 hc         1 A1A       0.053700
     40 H6           2.5020   -18.1460    17.2900 hc         1 A1A       0.039033
     41 H8           0.8510   -18.4760    17.7910 hc         1 A1A       0.039033
     42 H7           1.1600   -17.3370    16.4810 hc         1 A1A       0.039033
     43 H2           0.1240   -15.2920    19.5220 hc         1 A1A       0.039033
     44 H3          -0.2440   -15.5340    17.8140 hc         1 A1A       0.039033
     45 H4          -0.5120   -16.8350    18.9730 hc         1 A1A       0.039033
     46 H9           4.1300   -16.7110    18.3860 hn         1 A1A       0.513000
     47 O1           3.4000   -14.6980    23.1560 o          1 A1A      -0.522000
@<TRIPOS>BOND
     1     1     3 ar  
     2     1     4 ar  
     3     2     5 1   
     4     2     6 1   
     5     2    26 1   
     6     3     7 ar  
     7     3    23 1   
     8     4    25 ar  
     9     4    27 1   
    10     5     7 ar  
    11     5    25 ar  
    12     6    24 2   
    13     6    28 1   
    14     7    24 1   
    15     8    16 ar  
    16     8    18 ar  
    17     8    29 1   
    18     9    12 1   
    19     9    15 ar  
    20     9    17 ar  
    21    10    12 1   
    22    10    14 1   
    23    10    30 1   
    24    10    31 1   
    25    11    14 1   
    26    11    15 1   
    27    11    32 1   
    28    11    33 1   
    29    12    13 2   
    30    12    47 2   
    31    14    34 1   
    32    14    35 1   
    33    15    16 ar  
    34    16    36 1   
    35    17    18 ar  
    36    17    37 1   
    37    18    19 1   
    38    19    20 1   
    39    19    23 1   
    40    19    38 1   
    41    20    21 1   
    42    20    22 1   
    43    20    39 1   
    44    21    40 1   
    45    21    41 1   
    46    21    42 1   
    47    22    43 1   
    48    22    44 1   
    49    22    45 1   
    50    23    46 1   
@<TRIPOS>SUBSTRUCTURE
     1 A1A         1 TEMP              0 ****  ****    0 ROOT
