@<TRIPOS>MOLECULE
A1A
   46    49     1     0     0
SMALL
No Charge or Current Charge


@<TRIPOS>ATOM
      1 N1         -10.4570    -7.1780    18.1590 nb         1 A1A      -0.304000
      2 N3         -14.3110    -8.4550    18.8540 na         1 A1A      -0.315400
      3 C4         -10.7900    -8.4640    18.3900 ca         1 A1A       0.436900
      4 C5         -11.4750    -6.2830    18.1610 ca         1 A1A       0.176900
      5 C6         -13.0960    -7.8340    18.6030 ca         1 A1A       0.145500
      6 C7         -14.1540    -9.8480    19.0380 cc         1 A1A      -0.178100
      7 C8         -12.7940   -10.0570    18.8900 cd         1 A1A      -0.204200
      8 C10         -8.3780    -9.0340    16.4460 ca         1 A1A      -0.142300
      9 C13         -8.3250    -8.5930    13.6520 ca         1 A1A       0.227100
     10 C15         -8.8620   -10.0180    15.5600 ca         1 A1A       0.027000
     11 C17         -8.4000    -9.3450    11.3110 c6         1 A1A       0.178600
     12 S           -9.4790   -11.0470    13.0760 sy         1 A1A       1.079500
     13 O          -10.8100   -11.4400    13.5560 o          1 A1A      -0.519000
     14 C16         -9.6680   -10.1710    11.5350 c6         1 A1A      -0.361400
     15 O2          -8.2900    -8.3060    12.3020 os         1 A1A      -0.334100
     16 C12         -7.8620    -7.6080    14.5360 ca         1 A1A      -0.161000
     17 C11         -7.8830    -7.8240    15.9240 ca         1 A1A       0.004000
     18 C14         -8.8340    -9.7980    14.1690 ca         1 A1A      -0.345500
     19 C3          -8.3960    -9.2620    17.9590 c3         1 A1A       0.294800
     20 C1          -7.5360   -10.4870    18.4050 c3         1 A1A      -0.070700
     21 C2          -6.0970   -10.4290    17.8320 c3         1 A1A      -0.088600
     22 C           -7.4840   -10.6400    19.9470 c3         1 A1A      -0.088600
     23 N           -9.7880    -9.4220    18.3990 nu         1 A1A      -0.923100
     24 C9         -12.1280    -8.8050    18.6180 ca         1 A1A      -0.257800
     25 N2         -12.7890    -6.5450    18.3720 nb         1 A1A      -0.229000
     26 H1         -15.1950    -7.9580    18.8980 hn         1 A1A       0.361000
     27 H10        -11.2100    -5.2440    17.9730 h5         1 A1A       0.041100
     28 H11        -14.9740   -10.5320    19.2460 h4         1 A1A       0.217000
     29 H12        -12.3130   -11.0300    18.9680 ha         1 A1A       0.203000
     30 H15         -9.2640   -10.9500    15.9560 ha         1 A1A       0.125000
     31 H18         -7.5010    -9.9790    11.3470 h1         1 A1A       0.079200
     32 H19         -8.4310    -8.8730    10.3180 h1         1 A1A       0.079200
     33 H16         -9.8230   -10.9290    10.7590 h1         1 A1A       0.120700
     34 H17        -10.5540    -9.5340    11.6410 h1         1 A1A       0.120700
     35 H14         -7.4810    -6.6700    14.1410 ha         1 A1A       0.134000
     36 H13         -7.5160    -7.0480    16.5920 ha         1 A1A       0.128000
     37 H           -7.9660    -8.3750    18.4490 h1         1 A1A       0.083700
     38 H5          -8.0030   -11.3960    18.0040 hc         1 A1A       0.046700
     39 H7          -6.1030   -10.4500    16.7350 hc         1 A1A       0.039033
     40 H6          -5.5840    -9.5150    18.1560 hc         1 A1A       0.039033
     41 H8          -5.5090   -11.2900    18.1720 hc         1 A1A       0.039033
     42 H2          -8.4860   -10.7850    20.3690 hc         1 A1A       0.039033
     43 H3          -6.8770   -11.5080    20.2310 hc         1 A1A       0.039033
     44 H4          -7.0430    -9.7490    20.4120 hc         1 A1A       0.039033
     45 H9         -10.1040   -10.3650    18.6050 hn         1 A1A       0.497000
     46 O1          -8.4300   -12.0560    12.8890 o          1 A1A      -0.519000
@<TRIPOS>BOND
     1     1     3 ar  
     2     1     4 ar  
     3     2     5 1   
     4     2     6 1   
     5     2    26 1   
     6     3    23 1   
     7     3    24 ar  
     8     4    25 ar  
     9     4    27 1   
    10     5    24 ar  
    11     5    25 ar  
    12     6     7 2   
    13     6    28 1   
    14     7    24 1   
    15     7    29 1   
    16     8    10 ar  
    17     8    17 ar  
    18     8    19 1   
    19     9    15 1   
    20     9    16 ar  
    21     9    18 ar  
    22    10    18 ar  
    23    10    30 1   
    24    11    14 1   
    25    11    15 1   
    26    11    31 1   
    27    11    32 1   
    28    12    13 2   
    29    12    14 1   
    30    12    18 1   
    31    12    46 2   
    32    14    33 1   
    33    14    34 1   
    34    16    17 ar  
    35    16    35 1   
    36    17    36 1   
    37    19    20 1   
    38    19    23 1   
    39    19    37 1   
    40    20    21 1   
    41    20    22 1   
    42    20    38 1   
    43    21    39 1   
    44    21    40 1   
    45    21    41 1   
    46    22    42 1   
    47    22    43 1   
    48    22    44 1   
    49    23    45 1   
@<TRIPOS>SUBSTRUCTURE
     1 A1A         1 TEMP              0 ****  ****    0 ROOT
