@<TRIPOS>MOLECULE
A1A
   61    65     1     0     0
SMALL
abcg2


@<TRIPOS>ATOM
      1 N1           8.3960    -7.9310    14.7340 nb         1 A1A      -0.306000
      2 N3           4.7230    -9.5110    14.7070 na         1 A1A      -0.302400
      3 C4           8.1110    -8.9450    13.9170 ca         1 A1A       0.443900
      4 C5           7.4350    -7.4490    15.5210 ca         1 A1A       0.185900
      5 C6           5.9070    -8.8700    14.8080 ca         1 A1A       0.158500
      6 C7           4.8180   -10.5130    13.7640 cc         1 A1A      -0.054100
      7 C8           3.7090   -11.4000    13.4510 cc         1 A1A       0.089000
      8 C10          2.7490   -13.0530    12.0160 cd         1 A1A      -0.025400
      9 C13          2.5860   -11.4720    14.2320 cd         1 A1A      -0.331200
     10 C15          6.7990    -9.4730    13.9130 ca         1 A1A      -0.266800
     11 C17         11.1110    -6.5610    12.9860 ca         1 A1A      -0.028000
     12 C20         10.6010    -6.5260    10.2910 ca         1 A1A      -0.247500
     13 C21         10.3920    -7.6940    11.0170 ca         1 A1A      -0.005000
     14 C22         10.9140    -5.1220     7.9030 c6         1 A1A      -0.306400
     15 C24         11.3080    -4.0660    10.1400 c6         1 A1A      -0.050100
     16 S           10.1920    -6.6090     8.5650 sy         1 A1A       1.050500
     17 O1           8.7370    -6.5180     8.4480 o          1 A1A      -0.523000
     18 C23         10.5870    -3.9450     8.8060 c6         1 A1A      -0.055400
     19 C19         11.0520    -5.3480    10.8870 ca         1 A1A       0.013700
     20 C18         11.3060    -5.4020    12.2570 ca         1 A1A      -0.132000
     21 C16         10.6510    -7.7250    12.3780 ca         1 A1A      -0.106300
     22 C3          10.4590    -8.9930    13.1820 c3         1 A1A       0.290800
     23 C1          11.3980   -10.1270    12.7350 c3         1 A1A      -0.072700
     24 C2          12.8470    -9.6540    12.7410 c3         1 A1A      -0.088600
     25 C           11.2360   -11.3510    13.6340 c3         1 A1A      -0.088600
     26 N            9.0820    -9.4450    13.1400 nu         1 A1A      -0.922100
     27 N2           6.1840    -7.8480    15.6220 nb         1 A1A      -0.230000
     28 C14          6.0940   -10.5130    13.2540 cd         1 A1A      -0.164200
     29 C12          1.4870   -12.3460    13.9330 c          1 A1A       0.553200
     30 O            0.4690   -12.4460    14.6120 o          1 A1A      -0.560000
     31 N4           1.6370   -13.1190    12.7870 n          1 A1A      -0.270000
     32 C11          0.5490   -14.0180    12.4360 c3         1 A1A       0.077300
     33 C9           3.7860   -12.2310    12.2990 cc         1 A1A      -0.292000
     34 H1           3.8930    -9.2460    15.2140 hn         1 A1A       0.368000
     35 H10          7.7280    -6.6220    16.1590 h5         1 A1A       0.043100
     36 H12          2.7620   -13.6950    11.1460 h4         1 A1A       0.199000
     37 H16          2.4750   -10.8850    15.1340 ha         1 A1A       0.202000
     38 H18         11.3170    -6.5620    14.0490 ha         1 A1A       0.125000
     39 H20         10.0350    -8.5880    10.5160 ha         1 A1A       0.126000
     40 H21         11.9900    -5.2850     7.8220 h1         1 A1A       0.106700
     41 H22         10.4980    -5.0180     6.8990 h1         1 A1A       0.106700
     42 H25         12.3860    -3.9780     9.9680 hc         1 A1A       0.064700
     43 H26         11.0370    -3.2260    10.7810 hc         1 A1A       0.064700
     44 H24         10.9000    -3.0280     8.3060 hc         1 A1A       0.066200
     45 H23          9.5080    -3.8680     8.9510 hc         1 A1A       0.066200
     46 H19         11.6580    -4.5080    12.7580 ha         1 A1A       0.116000
     47 H           10.6980    -8.7650    14.2240 h1         1 A1A       0.082700
     48 H5          11.1320   -10.4120    11.7100 hc         1 A1A       0.050700
     49 H7          13.0250    -8.8530    12.0240 hc         1 A1A       0.039367
     50 H6          13.1320    -9.2870    13.7300 hc         1 A1A       0.039367
     51 H8          13.5150   -10.4770    12.4870 hc         1 A1A       0.039367
     52 H4          10.2260   -11.7580    13.6080 hc         1 A1A       0.039367
     53 H3          11.9170   -12.1430    13.3220 hc         1 A1A       0.039367
     54 H2          11.4700   -11.1010    14.6710 hc         1 A1A       0.039367
     55 H9           8.8390   -10.1690    12.4820 hn         1 A1A       0.499000
     56 H17          6.4820   -11.1950    12.5140 ha         1 A1A       0.202000
     57 H14         -0.3780   -13.4630    12.3020 h1         1 A1A       0.054700
     58 H13          0.7930   -14.5250    11.5080 h1         1 A1A       0.054700
     59 H15          0.3990   -14.7630    13.2150 h1         1 A1A       0.054700
     60 H11          4.6390   -12.2120    11.6390 ha         1 A1A       0.202000
     61 O2          10.8470    -7.7760     7.9760 o          1 A1A      -0.523000
@<TRIPOS>BOND
     1     1     3 ar  
     2     1     4 ar  
     3     2     5 1   
     4     2     6 1   
     5     2    34 1   
     6     3    10 ar  
     7     3    26 1   
     8     4    27 ar  
     9     4    35 1   
    10     5    10 ar  
    11     5    27 ar  
    12     6     7 1   
    13     6    28 2   
    14     7     9 2   
    15     7    33 1   
    16     8    31 1   
    17     8    33 2   
    18     8    36 1   
    19     9    29 1   
    20     9    37 1   
    21    10    28 1   
    22    11    20 ar  
    23    11    21 ar  
    24    11    38 1   
    25    12    13 ar  
    26    12    16 1   
    27    12    19 ar  
    28    13    21 ar  
    29    13    39 1   
    30    14    16 1   
    31    14    18 1   
    32    14    40 1   
    33    14    41 1   
    34    15    18 1   
    35    15    19 1   
    36    15    42 1   
    37    15    43 1   
    38    16    17 2   
    39    16    61 2   
    40    18    44 1   
    41    18    45 1   
    42    19    20 ar  
    43    20    46 1   
    44    21    22 1   
    45    22    23 1   
    46    22    26 1   
    47    22    47 1   
    48    23    24 1   
    49    23    25 1   
    50    23    48 1   
    51    24    49 1   
    52    24    50 1   
    53    24    51 1   
    54    25    52 1   
    55    25    53 1   
    56    25    54 1   
    57    26    55 1   
    58    28    56 1   
    59    29    30 2   
    60    29    31 1   
    61    31    32 1   
    62    32    57 1   
    63    32    58 1   
    64    32    59 1   
    65    33    60 1   
@<TRIPOS>SUBSTRUCTURE
     1 A1A         1 TEMP              0 ****  ****    0 ROOT
