@<TRIPOS>MOLECULE
A1A
   57    60     1     0     0
SMALL
abcg2


@<TRIPOS>ATOM
      1 N1           4.5250   -15.8970    17.5410 nu         1 A1A      -0.916100
      2 N3           5.0460   -14.1780    16.0940 nb         1 A1A      -0.302000
      3 C4           7.5630   -16.7240    17.2450 cc         1 A1A      -0.118200
      4 C5           6.7630   -15.6970    16.6830 ca         1 A1A      -0.274800
      5 C6           5.4250   -15.2560    16.7810 ca         1 A1A       0.443900
      6 C7           3.2020   -15.3760    17.8210 c3         1 A1A       0.287800
      7 C8           3.2750   -14.1930    18.7630 ca         1 A1A      -0.111300
      8 C10          2.6620   -11.9280    19.3400 ca         1 A1A      -0.131000
      9 C13          3.9820   -14.2770    19.9510 ca         1 A1A      -0.009000
     10 C15          3.4080   -10.7960    21.4510 c6         1 A1A      -0.048100
     11 C20          7.5880   -14.9370    15.8480 ca         1 A1A       0.161500
     12 S            4.9000   -13.4500    22.3360 sy         1 A1A       1.125600
     13 O1           4.0430   -14.2480    23.2070 o          1 A1A      -0.538500
     14 N2           5.0660   -11.8870    22.8360 n7         1 A1A      -0.858300
     15 C14          3.8130   -11.1280    22.8730 c6         1 A1A       0.187800
     16 C11          3.3600   -11.9950    20.5430 ca         1 A1A       0.018700
     17 C9           2.6210   -13.0020    18.4670 ca         1 A1A      -0.031000
     18 C12          4.0200   -13.1910    20.8190 ca         1 A1A      -0.249500
     19 C16          2.3050   -16.5020    18.3610 c3         1 A1A      -0.070700
     20 C18          0.9220   -15.9700    18.7240 c3         1 A1A      -0.088100
     21 C19          5.9470   -13.5570    15.3300 ca         1 A1A       0.187900
     22 N4           7.2160   -13.8580    15.1510 nb         1 A1A      -0.235000
     23 N5           8.8270   -15.4750    15.8840 na         1 A1A      -0.310400
     24 C3           8.8250   -16.5610    16.7390 cd         1 A1A      -0.165300
     25 C2           9.9900   -17.4070    17.0700 c          1 A1A       0.637300
     26 O            9.9150   -18.1990    18.0010 o          1 A1A      -0.589100
     27 N           11.1000   -17.2470    16.3290 ns         1 A1A      -0.506900
     28 C1          12.3080   -18.0150    16.5610 c3         1 A1A       0.103000
     29 C           12.2900   -19.3890    15.9060 c3         1 A1A      -0.117100
     30 H9           4.8560   -16.6630    18.1070 hn         1 A1A       0.499000
     31 H8           7.2610   -17.4980    17.9330 ha         1 A1A       0.220000
     32 H            2.7680   -15.0310    16.8780 h1         1 A1A       0.085700
     33 H11          2.1430   -11.0120    19.0850 ha         1 A1A       0.115000
     34 H12          4.5130   -15.1900    20.2000 ha         1 A1A       0.126000
     35 H16          2.4330   -10.3060    21.4560 hc         1 A1A       0.071700
     36 H17          4.1180   -10.0740    21.0360 hc         1 A1A       0.071700
     37 H20          1.5370   -18.4240    17.7340 hc         1 A1A       0.039200
     38 H19          1.7380   -17.2730    16.4150 hc         1 A1A       0.039200
     39 H21          3.1430   -18.0870    17.1030 hc         1 A1A       0.039200
     40 H13          5.6110   -11.8410    23.6930 hn         1 A1A       0.482000
     41 H14          3.0150   -11.6630    23.3980 h1         1 A1A       0.059200
     42 H15          4.0080   -10.2130    23.4290 h1         1 A1A       0.059200
     43 H10          2.0680   -12.9140    17.5390 ha         1 A1A       0.122000
     44 H18          2.7690   -16.8980    19.2730 hc         1 A1A       0.050700
     45 H22          0.2770   -16.7880    19.0430 hc         1 A1A       0.039200
     46 H23          0.9560   -15.2430    19.5350 hc         1 A1A       0.039200
     47 H24          0.4490   -15.4910    17.8630 hc         1 A1A       0.039200
     48 H25          5.5790   -12.6900    14.7920 h5         1 A1A       0.043100
     49 H1           9.6230   -15.0680    15.4180 hn         1 A1A       0.359000
     50 H7          11.0690   -16.7090    15.4800 hn         1 A1A       0.306500
     51 H5          12.4600   -18.1090    17.6360 h1         1 A1A       0.055200
     52 H6          13.1400   -17.4270    16.1750 h1         1 A1A       0.055200
     53 H2          13.2320   -19.9050    16.0940 hc         1 A1A       0.043367
     54 H3          11.4840   -20.0050    16.3030 hc         1 A1A       0.043367
     55 H4          12.1620   -19.3070    14.8270 hc         1 A1A       0.043367
     56 C17          2.1820   -17.6350    17.3450 c3         1 A1A      -0.088100
     57 O2           6.2330   -13.9700    22.0720 o          1 A1A      -0.538500
@<TRIPOS>BOND
     1     1     5 1   
     2     1     6 1   
     3     1    30 1   
     4     2     5 ar  
     5     2    21 ar  
     6     3     4 1   
     7     3    24 2   
     8     3    31 1   
     9     4     5 ar  
    10     4    11 ar  
    11     6     7 1   
    12     6    19 1   
    13     6    32 1   
    14     7     9 ar  
    15     7    17 ar  
    16     8    16 ar  
    17     8    17 ar  
    18     8    33 1   
    19     9    18 ar  
    20     9    34 1   
    21    10    15 1   
    22    10    16 1   
    23    10    35 1   
    24    10    36 1   
    25    11    22 ar  
    26    11    23 1   
    27    12    13 2   
    28    12    14 1   
    29    12    18 1   
    30    12    57 2   
    31    14    15 1   
    32    14    40 1   
    33    15    41 1   
    34    15    42 1   
    35    16    18 ar  
    36    17    43 1   
    37    19    20 1   
    38    19    44 1   
    39    19    56 1   
    40    20    45 1   
    41    20    46 1   
    42    20    47 1   
    43    21    22 ar  
    44    21    48 1   
    45    23    24 1   
    46    23    49 1   
    47    24    25 1   
    48    25    26 2   
    49    25    27 1   
    50    27    28 1   
    51    27    50 1   
    52    28    29 1   
    53    28    51 1   
    54    28    52 1   
    55    29    53 1   
    56    29    54 1   
    57    29    55 1   
    58    37    56 1   
    59    38    56 1   
    60    39    56 1   
@<TRIPOS>SUBSTRUCTURE
     1 A1A         1 TEMP              0 ****  ****    0 ROOT
