@<TRIPOS>MOLECULE
A1A
   56    59     1     0     0
SMALL
No Charge or Current Charge


@<TRIPOS>ATOM
      1 N1          -9.7290    -8.4110    18.0910 nu         1 A1A      -0.917100
      2 N3         -10.0020    -9.7270    11.6010 n          1 A1A      -0.337300
      3 C4         -12.6690    -8.9090    18.8460 cc         1 A1A      -0.120200
      4 C5         -12.0130    -7.6850    18.4890 ca         1 A1A      -0.277800
      5 C6         -10.6870    -7.4090    18.1390 ca         1 A1A       0.442900
      6 C7          -8.3880    -8.3300    17.4950 c3         1 A1A       0.293800
      7 C8          -8.5280    -8.1600    15.9790 ca         1 A1A      -0.113300
      8 C10         -8.1540    -6.8450    13.9610 ca         1 A1A      -0.105000
      9 C15         -9.2820    -8.9780    13.7960 ca         1 A1A      -0.199600
     10 C17         -7.5370    -9.5760    17.8940 c3         1 A1A      -0.071700
     11 C20        -11.2890    -5.2090    17.8990 ca         1 A1A       0.189900
     12 C21        -12.9360    -6.6720    18.5240 ca         1 A1A       0.162500
     13 C14         -9.9430   -10.0110    12.9620 c          1 A1A       0.571600
     14 C12         -9.4690    -8.5500    11.0940 cc         1 A1A       0.502800
     15 N2          -8.8640    -7.5860    11.7930 nd         1 A1A      -0.622100
     16 C11         -8.7790    -7.8250    13.1710 ca         1 A1A       0.181400
     17 C9          -8.0280    -7.0050    15.3510 ca         1 A1A      -0.055000
     18 C16         -9.1580    -9.1440    15.1930 ca         1 A1A      -0.033000
     19 C19         -6.1670    -9.6050    17.1680 c3         1 A1A      -0.088600
     20 C18         -7.3230    -9.6760    19.4270 c3         1 A1A      -0.088600
     21 N4         -10.3160    -6.1490    17.8410 nb         1 A1A      -0.297000
     22 N5         -12.5880    -5.4060    18.2270 nb         1 A1A      -0.238000
     23 N6         -14.1670    -7.1900    18.8910 na         1 A1A      -0.311400
     24 C3         -13.9990    -8.5930    19.0920 cd         1 A1A      -0.168300
     25 C2         -15.0100    -9.6190    19.4950 c          1 A1A       0.636300
     26 O          -14.7530   -10.8070    19.6390 o          1 A1A      -0.590100
     27 N          -16.2740    -9.1060    19.6900 ns         1 A1A      -0.505900
     28 C1         -17.4360    -9.8870    20.1150 c3         1 A1A       0.102000
     29 C          -17.4200   -10.1710    21.6270 c3         1 A1A      -0.118100
     30 H9         -10.0620    -9.3330    18.3530 hn         1 A1A       0.499000
     31 H8         -12.2370    -9.9060    18.9170 ha         1 A1A       0.218000
     32 H           -7.8700    -7.4460    17.8960 h1         1 A1A       0.082700
     33 H11         -7.7620    -5.9470    13.4900 ha         1 A1A       0.134000
     34 H13        -10.1190   -11.6680    10.7580 h1         1 A1A       0.053367
     35 H15        -11.6930   -10.8540    10.9990 h1         1 A1A       0.053367
     36 H14        -10.6240   -10.3540     9.6610 h1         1 A1A       0.053367
     37 H17         -8.0810   -10.4760    17.5830 hc         1 A1A       0.049700
     38 H24        -10.9960    -4.1890    17.6570 h5         1 A1A       0.044100
     39 H12         -9.5740    -8.4410    10.0220 h5         1 A1A       0.045800
     40 H10         -7.5410    -6.2280    15.9370 ha         1 A1A       0.119000
     41 H16         -9.5550   -10.0370    15.6710 ha         1 A1A       0.132000
     42 H22         -5.5820   -10.4790    17.4780 hc         1 A1A       0.039033
     43 H21         -6.2940    -9.6640    16.0800 hc         1 A1A       0.039033
     44 H23         -5.5850    -8.7040    17.3980 hc         1 A1A       0.039033
     45 H18         -6.7250   -10.5600    19.6790 hc         1 A1A       0.039033
     46 H19         -6.7980    -8.7900    19.8060 hc         1 A1A       0.039033
     47 H20         -8.2770    -9.7620    19.9600 hc         1 A1A       0.039033
     48 H1         -15.0190    -6.6490    18.9920 hn         1 A1A       0.360000
     49 H7         -16.3900    -8.1130    19.5420 hn         1 A1A       0.307500
     50 H6         -17.4560   -10.8360    19.5620 h1         1 A1A       0.055200
     51 H5         -18.3470    -9.3290    19.8590 h1         1 A1A       0.055200
     52 H3         -18.3110   -10.7410    21.9160 hc         1 A1A       0.043367
     53 H2         -16.5350   -10.7540    21.9070 hc         1 A1A       0.043367
     54 H4         -17.4130    -9.2330    22.1960 hc         1 A1A       0.043367
     55 C13        -10.6470   -10.7070    10.7000 c3         1 A1A       0.083300
     56 O1         -10.4040   -11.0420    13.4370 o          1 A1A      -0.534000
@<TRIPOS>BOND
     1     1     5 1   
     2     1     6 1   
     3     1    30 1   
     4     2    13 1   
     5     2    14 1   
     6     2    55 1   
     7     3     4 1   
     8     3    24 2   
     9     3    31 1   
    10     4     5 ar  
    11     4    12 ar  
    12     5    21 ar  
    13     6     7 1   
    14     6    10 1   
    15     6    32 1   
    16     7    17 ar  
    17     7    18 ar  
    18     8    16 ar  
    19     8    17 ar  
    20     8    33 1   
    21     9    13 1   
    22     9    16 ar  
    23     9    18 ar  
    24    10    19 1   
    25    10    20 1   
    26    10    37 1   
    27    11    21 ar  
    28    11    22 ar  
    29    11    38 1   
    30    12    22 ar  
    31    12    23 1   
    32    13    56 2   
    33    14    15 2   
    34    14    39 1   
    35    15    16 1   
    36    17    40 1   
    37    18    41 1   
    38    19    42 1   
    39    19    43 1   
    40    19    44 1   
    41    20    45 1   
    42    20    46 1   
    43    20    47 1   
    44    23    24 1   
    45    23    48 1   
    46    24    25 1   
    47    25    26 2   
    48    25    27 1   
    49    27    28 1   
    50    27    49 1   
    51    28    29 1   
    52    28    50 1   
    53    28    51 1   
    54    29    52 1   
    55    29    53 1   
    56    29    54 1   
    57    34    55 1   
    58    35    55 1   
    59    36    55 1   
@<TRIPOS>SUBSTRUCTURE
     1 A1A         1 TEMP              0 ****  ****    0 ROOT
