@<TRIPOS>MOLECULE
A1A
   27    28     1     0     0
SMALL
No Charge or Current Charge


@<TRIPOS>ATOM
      1 N1           6.9610    11.1000    25.6250 nu         1 A1A      -0.896100
      2 C4           6.2130    12.0790    26.4240 c3         1 A1A       0.257100
      3 C5           6.9330    12.3610    27.7380 ca         1 A1A      -0.093300
      4 C6           6.6860    11.5570    28.8700 ca         1 A1A      -0.097000
      5 C7           7.3480    11.8170    30.0830 ca         1 A1A      -0.114000
      6 C8           8.2600    12.8810    30.1730 ca         1 A1A      -0.110000
      7 C10          7.8500    13.4270    27.8350 ca         1 A1A      -0.097000
      8 N            9.5670    11.0400    23.4640 na         1 A1A       0.126800
      9 C           10.5940    10.2820    22.7330 c3         1 A1A       0.079900
     10 C1           9.3640    12.4200    23.4040 cc         1 A1A      -0.149000
     11 C2           8.3090    12.6230    24.2480 cd         1 A1A      -0.266000
     12 C3           7.9570    11.3630    24.7530 cd         1 A1A       0.484900
     13 C9           8.5120    13.6860    29.0490 ca         1 A1A      -0.114000
     14 N2           8.6870    10.3800    24.3050 nc         1 A1A      -0.590800
     15 H5           6.9430    10.1300    25.9280 hn         1 A1A       0.473000
     16 H7           6.0800    13.0160    25.8660 h1         1 A1A       0.042200
     17 H6           5.2090    11.6880    26.6400 h1         1 A1A       0.042200
     18 H8           5.9810    10.7310    28.8080 ha         1 A1A       0.117500
     19 H9           7.1530    11.1930    30.9530 ha         1 A1A       0.110500
     20 H10          8.7720    13.0820    31.1120 ha         1 A1A       0.110000
     21 H12          8.0520    14.0540    26.9700 ha         1 A1A       0.117500
     22 H1          10.1120     9.5460    22.0790 h1         1 A1A       0.052033
     23 H           11.1970    10.9660    22.1240 h1         1 A1A       0.052033
     24 H2          11.2460     9.7640    23.4470 h1         1 A1A       0.052033
     25 H3           9.9570    13.0930    22.7960 h4         1 A1A       0.148000
     26 H4           7.8380    13.5700    24.4770 ha         1 A1A       0.151000
     27 H11          9.2190    14.5100    29.1170 ha         1 A1A       0.110500
@<TRIPOS>BOND
     1     1     2 1   
     2     1    12 1   
     3     1    15 1   
     4     2     3 1   
     5     2    16 1   
     6     2    17 1   
     7     3     4 ar  
     8     3     7 ar  
     9     4     5 ar  
    10     4    18 1   
    11     5     6 ar  
    12     5    19 1   
    13     6    13 ar  
    14     6    20 1   
    15     7    13 ar  
    16     7    21 1   
    17     8     9 1   
    18     8    10 1   
    19     8    14 1   
    20     9    22 1   
    21     9    23 1   
    22     9    24 1   
    23    10    11 2   
    24    10    25 1   
    25    11    12 1   
    26    11    26 1   
    27    12    14 2   
    28    13    27 1   
@<TRIPOS>SUBSTRUCTURE
     1 A1A         1 TEMP              0 ****  ****    0 ROOT
