@<TRIPOS>MOLECULE
A1A
   19    19     1     0     0
SMALL
abcg2


@<TRIPOS>ATOM
      1 N1          17.0860    -6.4380    14.9340 nv         1 A1A      -1.099000
      2 C4          21.0610    -5.4970    14.5620 ca         1 A1A       0.246900
      3 C5          19.1330    -6.3690    13.7220 ca         1 A1A       0.242900
      4 C6          18.3830    -6.0740    14.8880 ca         1 A1A       0.346000
      5 N           20.4030    -6.0960    13.5640 nb         1 A1A      -0.605000
      6 C           18.6700    -4.1350    19.3350 c3         1 A1A       0.154900
      7 O           19.2220    -4.5400    18.0830 os         1 A1A      -0.435100
      8 C2          19.0840    -5.4400    15.9350 ca         1 A1A      -0.220600
      9 C3          20.4420    -5.1610    15.7440 ca         1 A1A      -0.054000
     10 O1          17.2190    -5.2340    17.4010 o          1 A1A      -0.523000
     11 H6          16.4980    -6.1060    15.6780 hn         1 A1A       0.499500
     12 H7          16.6330    -6.7350    14.0860 hn         1 A1A       0.499500
     13 H4          22.1100    -5.2820    14.4030 h4         1 A1A       0.025100
     14 H5          18.6240    -6.8570    12.8950 h4         1 A1A       0.017100
     15 H2          19.4940    -3.7090    19.8980 h1         1 A1A       0.049700
     16 H           17.8940    -3.3810    19.2020 h1         1 A1A       0.049700
     17 H1          18.2580    -4.9830    19.8810 h1         1 A1A       0.049700
     18 H3          21.0170    -4.6740    16.5180 ha         1 A1A       0.134000
     19 C1          18.4020    -5.0730    17.1920 c          1 A1A       0.622700
@<TRIPOS>BOND
     1     1     4 1   
     2     1    11 1   
     3     1    12 1   
     4     2     5 ar  
     5     2     9 ar  
     6     2    13 1   
     7     3     4 ar  
     8     3     5 ar  
     9     3    14 1   
    10     4     8 ar  
    11     6     7 1   
    12     6    15 1   
    13     6    16 1   
    14     6    17 1   
    15     7    19 1   
    16     8     9 ar  
    17     8    19 1   
    18     9    18 1   
    19    10    19 2   
@<TRIPOS>SUBSTRUCTURE
     1 A1A         1 TEMP              0 ****  ****    0 ROOT
