@<TRIPOS>MOLECULE
A1A
   18    18     1     0     0
SMALL
No Charge or Current Charge


@<TRIPOS>ATOM
      1 N1          13.1290    -4.1050    34.5230 nc         1 A1A      -0.645300
      2 C4          13.1530    -6.0470    33.1520 cd         1 A1A      -0.369200
      3 C5          14.5630    -6.3120    33.4080 c          1 A1A       0.556200
      4 N           15.1600    -5.3860    34.2570 n          1 A1A      -0.310300
      5 C           17.5480    -4.6840    33.7540 c3         1 A1A       0.140600
      6 O           17.2780    -3.2820    33.9240 oh         1 A1A      -0.669000
      7 C1          16.5910    -5.5350    34.6210 c3         1 A1A       0.083000
      8 C2          14.4270    -4.3290    34.7670 cd         1 A1A       0.519800
      9 C3          12.4690    -4.9860    33.6910 cc         1 A1A       0.086600
     10 O1          15.1540    -7.2610    32.9140 o          1 A1A      -0.551000
     11 H7          12.6690    -6.7590    32.4930 ha         1 A1A       0.213000
     12 H2          17.4290    -4.9740    32.7020 h1         1 A1A       0.039700
     13 H1          18.5820    -4.9090    34.0470 h1         1 A1A       0.039700
     14 H           17.9190    -2.7930    33.3590 ho         1 A1A       0.453000
     15 H4          16.8890    -6.5890    34.5440 h1         1 A1A       0.073700
     16 H3          16.7220    -5.2510    35.6740 h1         1 A1A       0.073700
     17 H5          14.9610    -3.6480    35.4200 h5         1 A1A       0.054800
     18 H6          11.4140    -4.7880    33.5020 h4         1 A1A       0.210000
@<TRIPOS>BOND
     1     1     8 2   
     2     1     9 1   
     3     2     3 1   
     4     2     9 2   
     5     2    11 1   
     6     3     4 1   
     7     3    10 2   
     8     4     7 1   
     9     4     8 1   
    10     5     6 1   
    11     5     7 1   
    12     5    12 1   
    13     5    13 1   
    14     6    14 1   
    15     7    15 1   
    16     7    16 1   
    17     8    17 1   
    18     9    18 1   
@<TRIPOS>SUBSTRUCTURE
     1 A1A         1 TEMP              0 ****  ****    0 ROOT
