@<TRIPOS>MOLECULE
A1A
   54    58     1     0     0
SMALL
abcg2


@<TRIPOS>ATOM
      1 N1           8.8900    -6.9060    18.0220 nb         1 A1A      -0.305000
      2 N3           5.1250    -7.9700    18.8580 na         1 A1A      -0.310400
      3 C4           8.5490    -8.1940    18.0580 ca         1 A1A       0.436900
      4 C5           7.9580    -5.9880    18.2790 ca         1 A1A       0.182900
      5 C6           6.3520    -7.4650    18.5970 ca         1 A1A       0.155500
      6 C7           5.1680    -9.3460    18.7760 cc         1 A1A      -0.005300
      7 C8           3.9870   -10.1400    19.0100 cc         1 A1A      -0.084800
      8 C13          6.4480    -9.7330    18.4680 cd         1 A1A      -0.172200
      9 C15         10.7860    -8.5990    15.8600 ca         1 A1A       0.329300
     10 C17         11.0280    -7.2190    13.9270 ca         1 A1A      -0.081000
     11 C20         10.1200   -10.5040    11.7220 c6         1 A1A       0.120600
     12 C21          9.6910    -9.1540    11.2010 c6         1 A1A       0.115600
     13 N6           5.1560   -13.0120    17.1600 n1         1 A1A      -0.425000
     14 C11          3.7290   -11.4390    18.5910 cd         1 A1A      -0.082000
     15 N5           2.4990   -11.7740    19.0480 na         1 A1A       0.164800
     16 N4           1.9500   -10.7880    19.7210 nd         1 A1A      -0.492800
     17 C9           2.8210    -9.7950    19.7130 cc         1 A1A       0.233900
     18 C14          7.2110    -8.5400    18.3490 ca         1 A1A      -0.259800
     19 N2           6.6870    -6.1730    18.5710 nb         1 A1A      -0.234000
     20 N            9.4860    -9.1300    17.8350 nu         1 A1A      -0.902100
     21 C3          10.8210    -8.8350    17.3530 c3         1 A1A       0.200200
     22 C1          11.7840    -9.9640    17.7500 c3         1 A1A      -0.066700
     23 C2          13.1810    -9.6920    17.2030 c3         1 A1A      -0.086600
     24 C           11.8310   -10.1360    19.2640 c3         1 A1A      -0.086600
     25 N7          10.3840    -9.6230    15.1100 nb         1 A1A      -0.682000
     26 C19         10.3050    -9.4850    13.8100 ca         1 A1A       0.520300
     27 O            9.9210   -10.5790    13.1280 os         1 A1A      -0.436300
     28 O1          10.4550    -8.1280    11.8180 os         1 A1A      -0.323100
     29 C18         10.5950    -8.2770    13.1530 ca         1 A1A       0.012100
     30 C16         11.1340    -7.3810    15.3040 ca         1 A1A      -0.135000
     31 H1           4.3010    -7.4150    19.0320 hn         1 A1A       0.362000
     32 H10          8.2970    -4.9570    18.2370 h5         1 A1A       0.042100
     33 H13          0.8470   -12.9620    19.3460 h1         1 A1A       0.067367
     34 H14          1.6610   -13.2220    17.7930 h1         1 A1A       0.067367
     35 H12          2.3810   -13.8480    19.2910 h1         1 A1A       0.067367
     36 H15          6.7970   -10.7480    18.3680 ha         1 A1A       0.208000
     37 H17         11.2700    -6.2740    13.4570 ha         1 A1A       0.134000
     38 H18         11.1720   -10.6900    11.4840 h1         1 A1A       0.070700
     39 H19          9.5210   -11.2950    11.2710 h1         1 A1A       0.070700
     40 H20          9.8670    -9.0860    10.1290 h1         1 A1A       0.070700
     41 H21          8.6240    -8.9920    11.3880 h1         1 A1A       0.070700
     42 H11          2.5970    -8.8670    20.2180 h4         1 A1A       0.045100
     43 H9           9.1690   -10.0830    17.7340 hn         1 A1A       0.503000
     44 H           11.1540    -7.9180    17.8420 h1         1 A1A       0.088700
     45 H5          11.4150   -10.8930    17.3000 hc         1 A1A       0.065700
     46 H7          13.2050    -9.6610    16.1140 hc         1 A1A       0.036700
     47 H6          13.5690    -8.7400    17.5730 hc         1 A1A       0.036700
     48 H8          13.8710   -10.4750    17.5230 hc         1 A1A       0.036700
     49 H3          10.8610   -10.3960    19.6850 hc         1 A1A       0.036700
     50 H4          12.5300   -10.9290    19.5350 hc         1 A1A       0.036700
     51 H2          12.1700    -9.2180    19.7490 hc         1 A1A       0.036700
     52 H16         11.4660    -6.5640    15.9290 ha         1 A1A       0.137000
     53 C10          1.8110   -13.0310    18.8540 c3         1 A1A       0.065900
     54 C12          4.5090   -12.3090    17.8050 ch         1 A1A       0.342000
@<TRIPOS>BOND
     1     1     3 ar  
     2     1     4 ar  
     3     2     5 1   
     4     2     6 1   
     5     2    31 1   
     6     3    18 ar  
     7     3    20 1   
     8     4    19 ar  
     9     4    32 1   
    10     5    18 ar  
    11     5    19 ar  
    12     6     7 1   
    13     6     8 2   
    14     7    14 2   
    15     7    17 1   
    16     8    18 1   
    17     8    36 1   
    18     9    21 1   
    19     9    25 ar  
    20     9    30 ar  
    21    10    29 ar  
    22    10    30 ar  
    23    10    37 1   
    24    11    12 1   
    25    11    27 1   
    26    11    38 1   
    27    11    39 1   
    28    12    28 1   
    29    12    40 1   
    30    12    41 1   
    31    13    54 3   
    32    14    15 1   
    33    14    54 1   
    34    15    16 1   
    35    15    53 1   
    36    16    17 2   
    37    17    42 1   
    38    20    21 1   
    39    20    43 1   
    40    21    22 1   
    41    21    44 1   
    42    22    23 1   
    43    22    24 1   
    44    22    45 1   
    45    23    46 1   
    46    23    47 1   
    47    23    48 1   
    48    24    49 1   
    49    24    50 1   
    50    24    51 1   
    51    25    26 ar  
    52    26    27 1   
    53    26    29 ar  
    54    28    29 1   
    55    30    52 1   
    56    33    53 1   
    57    34    53 1   
    58    35    53 1   
@<TRIPOS>SUBSTRUCTURE
     1 A1A         1 TEMP              0 ****  ****    0 ROOT
