@<TRIPOS>MOLECULE
A1A
   61    66     1     0     0
SMALL
No Charge or Current Charge


@<TRIPOS>ATOM
      1 N1           8.9510    -6.9500    18.3950 nb         1 A1A      -0.297000
      2 N3           5.0460    -8.0850    19.0540 na         1 A1A      -0.313400
      3 C4           8.5640    -8.2300    18.5650 ca         1 A1A       0.437900
      4 C5           7.9730    -6.0130    18.4480 ca         1 A1A       0.183900
      5 C6           6.2880    -7.5110    18.8250 ca         1 A1A       0.158500
      6 C7           5.1540    -9.4860    19.1650 cc         1 A1A      -0.024300
      7 C8           4.0660   -10.4080    19.4020 cc         1 A1A      -0.040800
      8 C10          3.3080   -12.7290    19.7190 cd         1 A1A      -0.056000
      9 C13          0.3940   -10.5400    19.9350 cc         1 A1A       0.333700
     10 C15          6.5010    -9.7630    18.9990 cd         1 A1A      -0.174200
     11 C17         10.9210    -8.7920    16.5600 ca         1 A1A      -0.108300
     12 C20         10.9440    -8.1880    13.7840 ca         1 A1A       0.013700
     13 C21         10.3660    -9.3950    14.2500 ca         1 A1A      -0.246500
     14 C22         10.3560    -9.6870    15.6300 ca         1 A1A      -0.008000
     15 C24         10.0330    -8.5200    11.3540 c6         1 A1A      -0.056400
     16 S            9.6090   -10.5850    13.1290 sy         1 A1A       1.051500
     17 O            8.1540   -10.3960    13.2030 o          1 A1A      -0.523000
     18 C23         10.1430   -10.0530    11.4900 c6         1 A1A      -0.305400
     19 C25         11.0300    -7.8060    12.2960 c6         1 A1A      -0.049100
     20 C19         11.5080    -7.3020    14.7220 ca         1 A1A      -0.131000
     21 C18         11.4950    -7.5960    16.0940 ca         1 A1A      -0.031000
     22 C3          10.9150    -9.1070    18.0580 c3         1 A1A       0.289800
     23 C1          11.7230   -10.3950    18.4150 c3         1 A1A      -0.071700
     24 C2          13.1540   -10.3700    17.8200 c3         1 A1A      -0.088100
     25 C           11.7920   -10.6420    19.9450 c3         1 A1A      -0.088100
     26 N            9.5240    -9.2290    18.5180 nu         1 A1A      -0.920100
     27 C16          7.2150    -8.5240    18.7860 ca         1 A1A      -0.260800
     28 N2           6.6500    -6.2270    18.6560 nb         1 A1A      -0.229000
     29 C14          2.7790    -9.8710    19.5360 cd         1 A1A      -0.113000
     30 N5           1.7450   -10.7920    19.7660 na         1 A1A       0.057200
     31 N4          -0.1560   -11.7480    20.1210 nd         1 A1A      -0.543300
     32 C12          0.8010   -12.6660    20.0690 cc         1 A1A      -0.072400
     33 C11          2.0320   -12.1220    19.8450 cd         1 A1A      -0.160000
     34 C9           4.3290   -11.8350    19.4940 cc         1 A1A      -0.108000
     35 H1           4.1870    -7.5560    19.1280 hn         1 A1A       0.361000
     36 H10          8.2820    -4.9780    18.3090 h5         1 A1A       0.044100
     37 H12          3.4670   -13.8000    19.7930 ha         1 A1A       0.134000
     38 H14         -0.0730    -9.5620    19.9120 h5         1 A1A       0.069800
     39 H16          6.9490   -10.7520    19.0240 ha         1 A1A       0.204000
     40 H19          9.9010   -10.6100    15.9830 ha         1 A1A       0.126000
     41 H23         10.2400    -8.2250    10.3160 hc         1 A1A       0.066700
     42 H22          9.0070    -8.1870    11.5690 hc         1 A1A       0.066700
     43 H20         11.1810   -10.3930    11.3800 h1         1 A1A       0.106200
     44 H21          9.5010   -10.5810    10.7740 h1         1 A1A       0.106200
     45 H24         12.0530    -8.0020    11.9460 hc         1 A1A       0.064200
     46 H25         10.8880    -6.7210    12.1920 hc         1 A1A       0.064200
     47 H18         11.9660    -6.3750    14.3840 ha         1 A1A       0.116000
     48 H17         11.9360    -6.8910    16.7960 ha         1 A1A       0.122000
     49 H           11.3950    -8.2710    18.5890 h1         1 A1A       0.084700
     50 H5          11.2080   -11.2550    17.9700 hc         1 A1A       0.050700
     51 H7          13.1300   -10.3250    16.7240 hc         1 A1A       0.038867
     52 H6          13.7140    -9.5010    18.1870 hc         1 A1A       0.038867
     53 H8          13.7060   -11.2750    18.0990 hc         1 A1A       0.038867
     54 H3          10.7920   -10.7670    20.3760 hc         1 A1A       0.038867
     55 H4          12.3620   -11.5520    20.1650 hc         1 A1A       0.038867
     56 H2          12.2810    -9.8020    20.4530 hc         1 A1A       0.038867
     57 H9           9.1730   -10.1670    18.6870 hn         1 A1A       0.496000
     58 H15          2.5090    -8.8250    19.4800 h4         1 A1A       0.141000
     59 H13          0.5380   -13.7160    20.2010 h4         1 A1A       0.232000
     60 H11          5.3400   -12.2080    19.3840 ha         1 A1A       0.128000
     61 O1          10.1930   -11.9060    13.3980 o          1 A1A      -0.523000
@<TRIPOS>BOND
     1     1     3 ar  
     2     1     4 ar  
     3     2     5 1   
     4     2     6 1   
     5     2    35 1   
     6     3    26 1   
     7     3    27 ar  
     8     4    28 ar  
     9     4    36 1   
    10     5    27 ar  
    11     5    28 ar  
    12     6     7 1   
    13     6    10 2   
    14     7    29 2   
    15     7    34 1   
    16     8    33 1   
    17     8    34 2   
    18     8    37 1   
    19     9    30 1   
    20     9    31 2   
    21     9    38 1   
    22    10    27 1   
    23    10    39 1   
    24    11    14 ar  
    25    11    21 ar  
    26    11    22 1   
    27    12    13 ar  
    28    12    19 1   
    29    12    20 ar  
    30    13    14 ar  
    31    13    16 1   
    32    14    40 1   
    33    15    18 1   
    34    15    19 1   
    35    15    41 1   
    36    15    42 1   
    37    16    17 2   
    38    16    18 1   
    39    16    61 2   
    40    18    43 1   
    41    18    44 1   
    42    19    45 1   
    43    19    46 1   
    44    20    21 ar  
    45    20    47 1   
    46    21    48 1   
    47    22    23 1   
    48    22    26 1   
    49    22    49 1   
    50    23    24 1   
    51    23    25 1   
    52    23    50 1   
    53    24    51 1   
    54    24    52 1   
    55    24    53 1   
    56    25    54 1   
    57    25    55 1   
    58    25    56 1   
    59    26    57 1   
    60    29    30 1   
    61    29    58 1   
    62    30    33 1   
    63    31    32 1   
    64    32    33 2   
    65    32    59 1   
    66    34    60 1   
@<TRIPOS>SUBSTRUCTURE
     1 A1A         1 TEMP              0 ****  ****    0 ROOT
