@<TRIPOS>MOLECULE
A1A
   27    28     1     0     0
SMALL
No Charge or Current Charge


@<TRIPOS>ATOM
      1 C4           9.8430    13.9390    23.5100 ca         1 A1A       0.170100
      2 C5           9.1530    14.0070    24.7330 ca         1 A1A      -0.160000
      3 C6           8.8180    12.8430    25.4450 ca         1 A1A      -0.049000
      4 C7           9.1720    11.5870    24.9290 ca         1 A1A      -0.189000
      5 C8           9.8560    11.5050    23.7090 ca         1 A1A       0.208000
      6 C10         10.9980    16.4420    20.9970 c          1 A1A       0.571000
      7 N           12.1710    17.0580    21.4440 n          1 A1A      -0.410800
      8 C           12.5430    18.4040    20.9710 c3         1 A1A       0.094300
      9 O           10.1140    15.1580    22.8940 os         1 A1A      -0.325100
     10 C1          12.9660    16.2660    22.3970 c5         1 A1A       0.102000
     11 C2          12.4350    14.8250    22.1380 c5         1 A1A      -0.124400
     12 C3          10.9530    15.0690    21.6990 c5         1 A1A       0.081300
     13 C9          10.1920    12.6640    22.9940 ca         1 A1A      -0.249000
     14 F           10.1940    10.2950    23.2140 f          1 A1A      -0.179000
     15 H8           8.8770    14.9790    25.1350 ha         1 A1A       0.134000
     16 H9           8.2860    12.9160    26.3920 ha         1 A1A       0.120000
     17 H10          8.9180    10.6800    25.4710 ha         1 A1A       0.135000
     18 H2          12.6900    18.3870    19.8830 h1         1 A1A       0.045367
     19 H1          11.7470    19.1180    21.2170 h1         1 A1A       0.045367
     20 H           13.4750    18.7260    21.4530 h1         1 A1A       0.045367
     21 H4          14.0450    16.3490    22.2130 h1         1 A1A       0.051200
     22 H3          12.7600    16.5890    23.4270 h1         1 A1A       0.051200
     23 H6          12.9970    14.3580    21.3200 hc         1 A1A       0.069700
     24 H5          12.5480    14.1770    23.0130 hc         1 A1A       0.069700
     25 H7          10.5570    14.3370    20.9850 h1         1 A1A       0.083700
     26 H11         10.7210    12.5340    22.0570 ha         1 A1A       0.134000
     27 O1          10.2120    16.9260    20.1920 o          1 A1A      -0.524000
@<TRIPOS>BOND
     1     1     2 ar  
     2     1     9 1   
     3     1    13 ar  
     4     2     3 ar  
     5     2    15 1   
     6     3     4 ar  
     7     3    16 1   
     8     4     5 ar  
     9     4    17 1   
    10     5    13 ar  
    11     5    14 1   
    12     6     7 1   
    13     6    12 1   
    14     6    27 2   
    15     7     8 1   
    16     7    10 1   
    17     8    18 1   
    18     8    19 1   
    19     8    20 1   
    20     9    12 1   
    21    10    11 1   
    22    10    21 1   
    23    10    22 1   
    24    11    12 1   
    25    11    23 1   
    26    11    24 1   
    27    12    25 1   
    28    13    26 1   
@<TRIPOS>SUBSTRUCTURE
     1 A1A         1 TEMP              0 ****  ****    0 ROOT
