@<TRIPOS>MOLECULE
A1A
   19    20     1     0     0
SMALL
No Charge or Current Charge


@<TRIPOS>ATOM
      1 N1          18.9290    -2.4690    23.7590 nc         1 A1A      -0.278600
      2 N3          18.9340    -0.6180    22.5610 na         1 A1A       0.290900
      3 C4          19.5790     0.9720    24.6620 cc         1 A1A      -0.156000
      4 C5          19.2940     1.4520    23.3320 cc         1 A1A       0.322900
      5 N           16.9440    -0.3640    20.0130 n8         1 A1A      -1.006100
      6 C           18.5570    -1.5860    21.6790 cd         1 A1A      -0.384200
      7 O           19.2410    -0.6930    19.2890 o          1 A1A      -0.526000
      8 C1          18.5700    -2.7330    22.4500 cc         1 A1A       0.086600
      9 C2          19.1320    -1.1640    23.8060 cd         1 A1A      -0.089000
     10 C3          19.4900    -0.3730    24.9340 cd         1 A1A      -0.021000
     11 N2          18.9480     0.7280    22.2590 nd         1 A1A      -0.480800
     12 O1          17.6260    -2.6800    19.4600 o          1 A1A      -0.526000
     13 S           18.1800    -1.4270    19.9720 sy         1 A1A       1.199200
     14 H4          19.8420     1.6880    25.4330 ha         1 A1A       0.143000
     15 H5          19.3420     2.5110    23.1200 h4         1 A1A       0.048100
     16 H           17.2150     0.1910    20.8230 hn         1 A1A       0.483000
     17 H1          17.1940     0.2320    19.2280 hn         1 A1A       0.483000
     18 H2          18.3400    -3.7520    22.1440 h4         1 A1A       0.253000
     19 H3          19.6650    -0.7910    25.9210 ha         1 A1A       0.156000
@<TRIPOS>BOND
     1     1     8 1   
     2     1     9 2   
     3     2     6 1   
     4     2     9 1   
     5     2    11 1   
     6     3     4 1   
     7     3    10 2   
     8     3    14 1   
     9     4    11 2   
    10     4    15 1   
    11     5    13 1   
    12     5    16 1   
    13     5    17 1   
    14     6     8 2   
    15     6    13 1   
    16     7    13 2   
    17     8    18 1   
    18     9    10 1   
    19    10    19 1   
    20    12    13 2   
@<TRIPOS>SUBSTRUCTURE
     1 A1A         1 TEMP              0 ****  ****    0 ROOT
