@<TRIPOS>MOLECULE
A1A
   55    58     1     0     0
SMALL
abcg2


@<TRIPOS>ATOM
      1 N1           4.8300    -7.9660    18.7740 na         1 A1A      -0.305400
      2 N3           8.6790    -7.1500    18.0570 nb         1 A1A      -0.305000
      3 C4           6.1000    -7.5550    18.5200 ca         1 A1A       0.144500
      4 C5           7.7750    -6.1780    18.1360 ca         1 A1A       0.186900
      5 C6           8.2860    -8.4180    18.2160 ca         1 A1A       0.441900
      6 C7          10.5980    -9.1690    17.8670 c3         1 A1A       0.295800
      7 C8          10.8360    -8.7990    16.4190 ca         1 A1A      -0.101300
      8 C10         11.9180    -7.4140    14.7590 ca         1 A1A      -0.133000
      9 C13         10.2670    -9.5360    15.3930 ca         1 A1A      -0.004000
     10 C15         10.7340    -8.2840    11.2360 c6         1 A1A      -0.055400
     11 C17         11.3950   -10.4210    18.2780 c3         1 A1A      -0.071700
     12 C20          6.9160    -8.6870    18.4730 ca         1 A1A      -0.219800
     13 S            9.6650   -10.1710    12.8500 sy         1 A1A       1.051500
     14 O1           8.3030    -9.6460    12.7540 o          1 A1A      -0.522500
     15 C14         10.5310    -9.7860    11.3420 c6         1 A1A      -0.308400
     16 C16         11.7060    -7.7800    12.2920 c6         1 A1A      -0.048100
     17 C11         11.3560    -8.1430    13.7110 ca         1 A1A       0.008700
     18 C9          11.6600    -7.7290    16.0800 ca         1 A1A      -0.035000
     19 C12         10.5280    -9.2070    14.0670 ca         1 A1A      -0.245500
     20 C19         12.8790   -10.2530    17.9700 c3         1 A1A      -0.087600
     21 C18         11.1990   -10.7300    19.7600 c3         1 A1A      -0.087600
     22 N4           9.1970    -9.3920    18.1370 nu         1 A1A      -0.922100
     23 N2           6.4820    -6.2870    18.3550 nb         1 A1A      -0.240000
     24 C3           4.8050    -9.3160    18.9010 cc         1 A1A      -0.144100
     25 C2           6.0710    -9.8220    18.7330 cd         1 A1A      -0.179400
     26 C1           6.4630   -11.2390    18.7860 c          1 A1A       0.648300
     27 O            7.5640   -11.6240    18.3830 o          1 A1A      -0.643100
     28 N            5.5720   -12.1060    19.2830 ns         1 A1A      -0.495900
     29 C            5.8460   -13.5220    19.3660 c3         1 A1A       0.094300
     30 H            4.0280    -7.3590    18.8490 hn         1 A1A       0.366000
     31 H7           8.1580    -5.1710    17.9980 h5         1 A1A       0.042100
     32 H1          10.9460    -8.3360    18.4870 h1         1 A1A       0.074700
     33 H10         12.5620    -6.5750    14.5260 ha         1 A1A       0.113000
     34 H11          9.6150   -10.3700    15.6310 ha         1 A1A       0.138000
     35 H14         11.1310    -8.0600    10.2450 hc         1 A1A       0.064200
     36 H15          9.7750    -7.7670    11.3090 hc         1 A1A       0.064200
     37 H18         11.0180   -11.2670    17.6890 hc         1 A1A       0.061700
     38 H12         11.4790   -10.3260    11.3600 h1         1 A1A       0.105200
     39 H13          9.9130   -10.1890    10.5370 h1         1 A1A       0.105200
     40 H16         12.7010    -8.1820    12.0760 hc         1 A1A       0.062200
     41 H17         11.7960    -6.6960    12.2170 hc         1 A1A       0.062200
     42 H9          12.1080    -7.1330    16.8670 ha         1 A1A       0.119000
     43 H23         13.4350   -11.1250    18.3130 hc         1 A1A       0.037200
     44 H22         13.0710   -10.1390    16.9040 hc         1 A1A       0.037200
     45 H24         13.2870    -9.3780    18.4810 hc         1 A1A       0.037200
     46 H20         11.7730   -11.6120    20.0440 hc         1 A1A       0.037200
     47 H21         11.5460    -9.8970    20.3770 hc         1 A1A       0.037200
     48 H19         10.1570   -10.9230    20.0150 hc         1 A1A       0.037200
     49 H8           8.8310   -10.3420    18.1760 hn         1 A1A       0.546000
     50 H6           3.8700    -9.8200    19.0900 h4         1 A1A       0.213000
     51 H5           4.7190   -11.7720    19.6970 hn         1 A1A       0.314500
     52 H3           4.9530   -14.0200    19.7350 h1         1 A1A       0.043033
     53 H2           6.0910   -13.9390    18.3900 h1         1 A1A       0.043033
     54 H4           6.6680   -13.7400    20.0490 h1         1 A1A       0.043033
     55 O2           9.8240   -11.5890    13.1660 o          1 A1A      -0.522500
@<TRIPOS>BOND
     1     1     3 1   
     2     1    24 1   
     3     1    30 1   
     4     2     4 ar  
     5     2     5 ar  
     6     3    12 ar  
     7     3    23 ar  
     8     4    23 ar  
     9     4    31 1   
    10     5    12 ar  
    11     5    22 1   
    12     6     7 1   
    13     6    11 1   
    14     6    22 1   
    15     6    32 1   
    16     7     9 ar  
    17     7    18 ar  
    18     8    17 ar  
    19     8    18 ar  
    20     8    33 1   
    21     9    19 ar  
    22     9    34 1   
    23    10    15 1   
    24    10    16 1   
    25    10    35 1   
    26    10    36 1   
    27    11    20 1   
    28    11    21 1   
    29    11    37 1   
    30    12    25 1   
    31    13    14 2   
    32    13    15 1   
    33    13    19 1   
    34    13    55 2   
    35    15    38 1   
    36    15    39 1   
    37    16    17 1   
    38    16    40 1   
    39    16    41 1   
    40    17    19 ar  
    41    18    42 1   
    42    20    43 1   
    43    20    44 1   
    44    20    45 1   
    45    21    46 1   
    46    21    47 1   
    47    21    48 1   
    48    22    49 1   
    49    24    25 2   
    50    24    50 1   
    51    25    26 1   
    52    26    27 2   
    53    26    28 1   
    54    28    29 1   
    55    28    51 1   
    56    29    52 1   
    57    29    53 1   
    58    29    54 1   
@<TRIPOS>SUBSTRUCTURE
     1 A1A         1 TEMP              0 ****  ****    0 ROOT
