@<TRIPOS>MOLECULE
A1A
   56    59     1     0     0
SMALL
abcg2


@<TRIPOS>ATOM
      1 N1          -9.8120    -8.5830    17.9620 nu         1 A1A      -0.917100
      2 N3          -9.9370    -9.5570    11.5620 n          1 A1A      -0.337300
      3 C4         -12.8090    -9.1500    18.7940 cc         1 A1A      -0.120200
      4 C5         -12.1100    -7.9960    18.3600 ca         1 A1A      -0.277800
      5 C6         -10.7940    -7.6710    17.9600 ca         1 A1A       0.442900
      6 C7          -8.4840    -8.3430    17.4390 c3         1 A1A       0.293800
      7 C8          -8.4960    -8.2040    15.9320 ca         1 A1A      -0.113300
      8 C10         -7.6430    -7.1170    13.9410 ca         1 A1A      -0.105000
      9 C15         -9.2420    -8.9110    13.7500 ca         1 A1A      -0.199600
     10 C17         -7.5500    -9.4700    17.9220 c3         1 A1A      -0.071700
     11 C20        -11.5040    -5.5220    17.5900 ca         1 A1A       0.189900
     12 C21        -13.0280    -6.9410    18.3200 ca         1 A1A       0.162500
     13 C14        -10.0770    -9.7730    12.9220 c          1 A1A       0.571600
     14 C12         -9.0940    -8.6060    11.0700 cc         1 A1A       0.502800
     15 N2          -8.3580    -7.8230    11.7670 nd         1 A1A      -0.622100
     16 C11         -8.4190    -7.9580    13.1340 ca         1 A1A       0.181400
     17 C9          -7.6920    -7.2390    15.3100 ca         1 A1A      -0.055000
     18 C16         -9.2700    -9.0280    15.1420 ca         1 A1A      -0.033000
     19 C19         -6.1590    -9.3550    17.3090 c3         1 A1A      -0.088600
     20 C18         -7.4480    -9.4690    19.4460 c3         1 A1A      -0.088600
     21 N4         -10.5210    -6.4240    17.5780 nb         1 A1A      -0.297000
     22 N5         -12.7640    -5.6890    17.9360 nb         1 A1A      -0.238000
     23 N6         -14.2260    -7.4180    18.7250 na         1 A1A      -0.311400
     24 C3         -14.1050    -8.7650    19.0080 cd         1 A1A      -0.168300
     25 C2         -15.1950    -9.6450    19.4790 c          1 A1A       0.636300
     26 O          -15.0540   -10.8610    19.4380 o          1 A1A      -0.590100
     27 N          -16.3100    -9.0440    19.9280 ns         1 A1A      -0.505900
     28 C1         -17.4450    -9.7850    20.4440 c3         1 A1A       0.102000
     29 C          -17.2990   -10.1680    21.9090 c3         1 A1A      -0.118100
     30 H9         -10.0590    -9.5330    18.1900 hn         1 A1A       0.499000
     31 H8         -12.4190   -10.1440    18.9480 ha         1 A1A       0.218000
     32 H           -8.1120    -7.4040    17.8610 h1         1 A1A       0.082700
     33 H11         -7.0160    -6.3700    13.4710 ha         1 A1A       0.134000
     34 H13        -10.4920   -11.4290    10.7860 h1         1 A1A       0.053367
     35 H15        -11.7890   -10.2230    10.8230 h1         1 A1A       0.053367
     36 H14        -10.4910   -10.0910     9.6300 h1         1 A1A       0.053367
     37 H17         -7.9860   -10.4240    17.5980 hc         1 A1A       0.049700
     38 H24        -11.2230    -4.5250    17.2690 h5         1 A1A       0.044100
     39 H12         -9.0690    -8.5310     9.9890 h5         1 A1A       0.045800
     40 H10         -7.0960    -6.5740    15.9250 ha         1 A1A       0.119000
     41 H16         -9.9180    -9.7710    15.5920 ha         1 A1A       0.132000
     42 H22         -5.5090   -10.1320    17.7120 hc         1 A1A       0.039033
     43 H21         -6.1700    -9.4640    16.2250 hc         1 A1A       0.039033
     44 H23         -5.7050    -8.3900    17.5460 hc         1 A1A       0.039033
     45 H18         -6.8020   -10.2800    19.7840 hc         1 A1A       0.039033
     46 H19         -7.0130    -8.5310    19.7990 hc         1 A1A       0.039033
     47 H20         -8.4130    -9.5940    19.9350 hc         1 A1A       0.039033
     48 H1         -15.0780    -6.8780    18.7070 hn         1 A1A       0.360000
     49 H7         -16.3090    -8.0520    20.0980 hn         1 A1A       0.307500
     50 H6         -17.5890   -10.6730    19.8310 h1         1 A1A       0.055200
     51 H5         -18.3260    -9.1590    20.3060 h1         1 A1A       0.055200
     52 H3         -18.1870   -10.7010    22.2480 hc         1 A1A       0.043367
     53 H2         -16.4380   -10.8180    22.0640 hc         1 A1A       0.043367
     54 H4         -17.1780    -9.2850    22.5370 hc         1 A1A       0.043367
     55 C13        -10.7260   -10.3750    10.6520 c3         1 A1A       0.083300
     56 O1         -10.8450   -10.6190    13.3440 o          1 A1A      -0.534000
@<TRIPOS>BOND
     1     1     5 1   
     2     1     6 1   
     3     1    30 1   
     4     2    13 1   
     5     2    14 1   
     6     2    55 1   
     7     3     4 1   
     8     3    24 2   
     9     3    31 1   
    10     4     5 ar  
    11     4    12 ar  
    12     5    21 ar  
    13     6     7 1   
    14     6    10 1   
    15     6    32 1   
    16     7    17 ar  
    17     7    18 ar  
    18     8    16 ar  
    19     8    17 ar  
    20     8    33 1   
    21     9    13 1   
    22     9    16 ar  
    23     9    18 ar  
    24    10    19 1   
    25    10    20 1   
    26    10    37 1   
    27    11    21 ar  
    28    11    22 ar  
    29    11    38 1   
    30    12    22 ar  
    31    12    23 1   
    32    13    56 2   
    33    14    15 2   
    34    14    39 1   
    35    15    16 1   
    36    17    40 1   
    37    18    41 1   
    38    19    42 1   
    39    19    43 1   
    40    19    44 1   
    41    20    45 1   
    42    20    46 1   
    43    20    47 1   
    44    23    24 1   
    45    23    48 1   
    46    24    25 1   
    47    25    26 2   
    48    25    27 1   
    49    27    28 1   
    50    27    49 1   
    51    28    29 1   
    52    28    50 1   
    53    28    51 1   
    54    29    52 1   
    55    29    53 1   
    56    29    54 1   
    57    34    55 1   
    58    35    55 1   
    59    36    55 1   
@<TRIPOS>SUBSTRUCTURE
     1 A1A         1 TEMP              0 ****  ****    0 ROOT
