@<TRIPOS>MOLECULE
A1A
   56    60     1     0     0
SMALL
abcg2


@<TRIPOS>ATOM
      1 N1          -9.6610    -8.6690    18.4860 nu         1 A1A      -0.922100
      2 N3         -12.6940    -5.8800    18.1500 nb         1 A1A      -0.232000
      3 C4         -12.6970    -9.3060    19.1400 cc         1 A1A      -0.122200
      4 C5         -12.0000    -8.1430    18.7230 ca         1 A1A      -0.275800
      5 C6         -10.6720    -7.7910    18.3980 ca         1 A1A       0.439900
      6 C7          -8.3330    -8.4070    17.9720 c3         1 A1A       0.324800
      7 C8          -8.3190    -8.2520    16.4650 ca         1 A1A      -0.099300
      8 C10         -7.3160    -7.3210    14.4750 ca         1 A1A      -0.129000
      9 C13         -9.1900    -8.9650    15.6620 ca         1 A1A      -0.007000
     10 C15         -9.2520    -8.3440    11.3400 c6         1 A1A      -0.056400
     11 C17         -7.4220    -9.5390    18.3830 cx         1 A1A      -0.154700
     12 C20        -11.4190    -5.6840    17.8890 ca         1 A1A       0.190900
     13 C21        -12.9470    -7.1250    18.5650 ca         1 A1A       0.163500
     14 S          -10.3630    -9.7320    13.3680 sy         1 A1A       1.051500
     15 O1         -11.5870    -8.9310    13.3730 o          1 A1A      -0.520500
     16 C14         -9.6980    -9.7470    11.7160 c6         1 A1A      -0.307400
     17 C16         -8.0380    -7.9110    12.1510 c6         1 A1A      -0.049100
     18 C11         -8.1880    -8.0270    13.6450 ca         1 A1A       0.011700
     19 C9          -7.3820    -7.4240    15.8520 ca         1 A1A      -0.039000
     20 C12         -9.1230    -8.8430    14.2770 ca         1 A1A      -0.242500
     21 C19         -6.8470    -9.5620    19.7640 cx         1 A1A      -0.120400
     22 C18         -5.9660    -9.2740    18.5860 cx         1 A1A      -0.120400
     23 N2         -10.4110    -6.5520    17.9830 nb         1 A1A      -0.298000
     24 N4         -14.1590    -7.6310    18.8830 na         1 A1A      -0.309400
     25 C3         -14.0190    -8.9610    19.2260 cd         1 A1A      -0.164300
     26 C2         -15.1180    -9.8690    19.6140 c          1 A1A       0.636300
     27 O          -14.9250   -11.0780    19.6400 o          1 A1A      -0.590100
     28 N          -16.3010    -9.3040    19.9100 ns         1 A1A      -0.506900
     29 C1         -17.4610   -10.0810    20.3020 c3         1 A1A       0.103000
     30 C          -17.4880   -10.4220    21.7840 c3         1 A1A      -0.118100
     31 H9          -9.8720    -9.6100    18.7760 hn         1 A1A       0.504000
     32 H8         -12.2890   -10.2800    19.3610 ha         1 A1A       0.219000
     33 H           -7.9590    -7.4790    18.4160 h1         1 A1A       0.080700
     34 H11         -6.5770    -6.6700    14.0240 ha         1 A1A       0.115000
     35 H12         -9.9280    -9.6180    16.1130 ha         1 A1A       0.132000
     36 H16         -8.9990    -8.3340    10.2800 hc         1 A1A       0.065700
     37 H15        -10.0760    -7.6410    11.4710 hc         1 A1A       0.065700
     38 H19         -7.6820   -10.4990    17.9440 hc         1 A1A       0.087700
     39 H24        -11.1450    -4.6900    17.5490 h5         1 A1A       0.044100
     40 H14         -8.8690   -10.4570    11.7010 h1         1 A1A       0.105700
     41 H13        -10.4990   -10.1240    11.0770 h1         1 A1A       0.105700
     42 H17         -7.1780    -8.5190    11.8500 hc         1 A1A       0.063200
     43 H18         -7.7790    -6.8810    11.9010 hc         1 A1A       0.063200
     44 H10         -6.6970    -6.8490    16.4630 ha         1 A1A       0.117000
     45 H22         -6.7490   -10.5190    20.2590 hc         1 A1A       0.076200
     46 H23         -7.0910    -8.7400    20.4270 hc         1 A1A       0.076200
     47 H20         -5.2640   -10.0340    18.2680 hc         1 A1A       0.076200
     48 H21         -5.6100    -8.2590    18.4560 hc         1 A1A       0.076200
     49 H1         -15.0220    -7.1220    18.7700 hn         1 A1A       0.360000
     50 H7         -16.3620    -8.3070    20.0380 hn         1 A1A       0.307500
     51 H6         -17.4890   -10.9890    19.7010 h1         1 A1A       0.055200
     52 H5         -18.3420    -9.4980    20.0340 h1         1 A1A       0.055200
     53 H3         -18.3900   -10.9840    22.0230 hc         1 A1A       0.043367
     54 H2         -16.6280   -11.0300    22.0650 hc         1 A1A       0.043367
     55 H4         -17.4830    -9.5190    22.3950 hc         1 A1A       0.043367
     56 O2         -10.4450   -11.0930    13.8940 o          1 A1A      -0.520500
@<TRIPOS>BOND
     1     1     5 1   
     2     1     6 1   
     3     1    31 1   
     4     2    12 ar  
     5     2    13 ar  
     6     3     4 1   
     7     3    25 2   
     8     3    32 1   
     9     4     5 ar  
    10     4    13 ar  
    11     5    23 ar  
    12     6     7 1   
    13     6    11 1   
    14     6    33 1   
    15     7     9 ar  
    16     7    19 ar  
    17     8    18 ar  
    18     8    19 ar  
    19     8    34 1   
    20     9    20 ar  
    21     9    35 1   
    22    10    16 1   
    23    10    17 1   
    24    10    36 1   
    25    10    37 1   
    26    11    21 1   
    27    11    22 1   
    28    11    38 1   
    29    12    23 ar  
    30    12    39 1   
    31    13    24 1   
    32    14    15 2   
    33    14    16 1   
    34    14    20 1   
    35    14    56 2   
    36    16    40 1   
    37    16    41 1   
    38    17    18 1   
    39    17    42 1   
    40    17    43 1   
    41    18    20 ar  
    42    19    44 1   
    43    21    22 1   
    44    21    45 1   
    45    21    46 1   
    46    22    47 1   
    47    22    48 1   
    48    24    25 1   
    49    24    49 1   
    50    25    26 1   
    51    26    27 2   
    52    26    28 1   
    53    28    29 1   
    54    28    50 1   
    55    29    30 1   
    56    29    51 1   
    57    29    52 1   
    58    30    53 1   
    59    30    54 1   
    60    30    55 1   
@<TRIPOS>SUBSTRUCTURE
     1 A1A         1 TEMP              0 ****  ****    0 ROOT
