@<TRIPOS>MOLECULE
A1A
   31    32     1     0     0
SMALL
No Charge or Current Charge


@<TRIPOS>ATOM
      1 C4          18.0670    -5.1950    29.1290 ca         1 A1A      -0.083000
      2 C5          17.3090    -5.2630    27.9420 ca         1 A1A      -0.131300
      3 C6          17.5920    -4.2890    26.8080 c3         1 A1A       0.214100
      4 C7          19.1580    -3.9340    24.8640 c6         1 A1A       0.179500
      5 C8          20.4690    -4.5030    24.2700 c6         1 A1A      -0.114900
      6 C10         18.6570    -2.9820    22.5570 c6         1 A1A       0.155600
      7 N           18.6930    -4.7950    25.9670 n7         1 A1A      -0.856400
      8 C           16.2950    -6.2380    27.8300 ca         1 A1A       0.197000
      9 O           19.8670    -3.6030    22.0750 os         1 A1A      -0.447000
     10 C1          16.0420    -7.1290    28.8870 ca         1 A1A      -0.158000
     11 C11         18.0890    -3.7850    23.7500 c6         1 A1A      -0.114900
     12 C2          16.8020    -7.0560    30.0670 ca         1 A1A      -0.080000
     13 C3          17.8140    -6.0880    30.1860 ca         1 A1A      -0.131000
     14 C9          20.9240    -3.6600    23.0560 c6         1 A1A       0.155600
     15 F           15.5470    -6.3270    26.7060 f          1 A1A      -0.171000
     16 H3          18.8530    -4.4500    29.2340 ha         1 A1A       0.112000
     17 H5          16.6800    -4.1410    26.2140 h1         1 A1A       0.039700
     18 H4          17.8580    -3.3140    27.2380 h1         1 A1A       0.039700
     19 H7          19.3780    -2.9360    25.2720 h1         1 A1A       0.014700
     20 H9          20.3220    -5.5450    23.9540 hc         1 A1A       0.058200
     21 H12         18.8760    -1.9480    22.8630 h1         1 A1A       0.042450
     22 H13         17.9220    -2.9490    21.7410 h1         1 A1A       0.042450
     23 H6          19.4870    -4.9670    26.5920 hn         1 A1A       0.411000
     24 H           15.2580    -7.8750    28.7880 ha         1 A1A       0.132000
     25 H14         17.1970    -3.2750    24.1350 hc         1 A1A       0.058200
     26 H15         17.7640    -4.7750    23.4030 hc         1 A1A       0.058200
     27 H1          16.6070    -7.7460    30.8860 ha         1 A1A       0.117000
     28 H2          18.4030    -6.0290    31.0990 ha         1 A1A       0.117000
     29 H10         21.1830    -2.6390    23.3730 h1         1 A1A       0.042450
     30 H11         21.8150    -4.1120    22.5970 h1         1 A1A       0.042450
     31 H8          21.2610    -4.5090    25.0310 hc         1 A1A       0.058200
@<TRIPOS>BOND
     1     1     2 ar  
     2     1    13 ar  
     3     1    16 1   
     4     2     3 1   
     5     2     8 ar  
     6     3     7 1   
     7     3    17 1   
     8     3    18 1   
     9     4     5 1   
    10     4     7 1   
    11     4    11 1   
    12     4    19 1   
    13     5    14 1   
    14     5    20 1   
    15     5    31 1   
    16     6     9 1   
    17     6    11 1   
    18     6    21 1   
    19     6    22 1   
    20     7    23 1   
    21     8    10 ar  
    22     8    15 1   
    23     9    14 1   
    24    10    12 ar  
    25    10    24 1   
    26    11    25 1   
    27    11    26 1   
    28    12    13 ar  
    29    12    27 1   
    30    13    28 1   
    31    14    29 1   
    32    14    30 1   
@<TRIPOS>SUBSTRUCTURE
     1 A1A         1 TEMP              0 ****  ****    0 ROOT
