@<TRIPOS>MOLECULE
A1A
   59    63     1     0     0
SMALL
abcg2


@<TRIPOS>ATOM
      1 N1           8.9250    -7.1570    19.5180 nb         1 A1A      -0.315000
      2 N3           5.0850    -8.0020    20.2350 na         1 A1A      -0.306400
      3 C4           8.3850    -8.2670    19.0030 ca         1 A1A       0.447900
      4 C5           8.1750    -6.3530    20.2630 ca         1 A1A       0.187900
      5 C6           6.3730    -7.6030    20.0690 ca         1 A1A       0.143500
      6 C7           4.8830    -9.1730    19.5840 cc         1 A1A      -0.147100
      7 C8           6.0470    -9.5730    18.9730 cd         1 A1A      -0.176400
      8 C10          5.2780   -12.8800    17.3890 cx         1 A1A       0.047700
      9 C13          7.0190    -8.5530    19.2750 ca         1 A1A      -0.222800
     10 C15         10.9330    -7.5800    15.7180 ca         1 A1A      -0.040000
     11 C17         10.7670    -8.6280    13.5370 ca         1 A1A       0.012700
     12 C20         10.6910   -10.9930    11.6980 c6         1 A1A      -0.308400
     13 C21         10.2580    -9.6130    11.2300 c6         1 A1A      -0.055400
     14 C22         10.9250    -8.5130    12.0430 c6         1 A1A      -0.048100
     15 S           10.0270   -11.2980    13.3230 sy         1 A1A       1.053500
     16 O1          10.7170   -12.4200    13.9560 o          1 A1A      -0.521000
     17 C16         11.0130    -7.5140    14.3380 ca         1 A1A      -0.133000
     18 C18         10.4390    -9.8100    14.2000 ca         1 A1A      -0.247500
     19 C19         10.3560    -9.8870    15.5850 ca         1 A1A       0.001000
     20 C14         10.6050    -8.7680    16.3650 ca         1 A1A      -0.110300
     21 C3          10.5120    -8.8370    17.8740 c3         1 A1A       0.285800
     22 C1          11.4600    -9.8870    18.4820 c3         1 A1A      -0.069700
     23 C2          11.3570    -9.8910    20.0020 c3         1 A1A      -0.086600
     24 C           12.8980    -9.6320    18.0420 c3         1 A1A      -0.086600
     25 N            9.1360    -9.0780    18.2530 nu         1 A1A      -0.918100
     26 N2           6.9060    -6.4930    20.5850 nb         1 A1A      -0.243000
     27 C9           6.2370   -10.7890    18.1680 c          1 A1A       0.652300
     28 O            7.2600   -10.9790    17.5090 o          1 A1A      -0.629100
     29 N4           5.2420   -11.6940    18.1800 ns         1 A1A      -0.472900
     30 C12          4.6570   -14.1100    17.9670 cx         1 A1A      -0.134400
     31 C11          6.1440   -14.0240    17.8170 cx         1 A1A      -0.134400
     32 H1           4.3840    -7.4960    20.7550 hn         1 A1A       0.365000
     33 H10          8.6760    -5.4720    20.6510 h5         1 A1A       0.042100
     34 H11          3.9050    -9.6280    19.5980 h4         1 A1A       0.213000
     35 H13          5.1610   -12.7250    16.3210 h1         1 A1A       0.096700
     36 H18         11.1310    -6.6910    16.3050 ha         1 A1A       0.122000
     37 H21         11.7770   -11.0820    11.7610 h1         1 A1A       0.105200
     38 H22         10.3070   -11.7950    11.0660 h1         1 A1A       0.105200
     39 H23         10.5330    -9.5020    10.1810 hc         1 A1A       0.065200
     40 H24          9.1700    -9.5260    11.2770 hc         1 A1A       0.065200
     41 H25         11.9960    -8.5080    11.8170 hc         1 A1A       0.062700
     42 H26         10.5460    -7.5420    11.7220 hc         1 A1A       0.062700
     43 H19         11.2750    -6.5760    13.8630 ha         1 A1A       0.115000
     44 H20         10.1090   -10.8320    16.0550 ha         1 A1A       0.141000
     45 H           10.7930    -7.8630    18.2780 h1         1 A1A       0.091700
     46 H5          11.1570   -10.8760    18.1170 hc         1 A1A       0.054700
     47 H7          10.3520   -10.1360    20.3430 hc         1 A1A       0.036867
     48 H8          12.0370   -10.6300    20.4280 hc         1 A1A       0.036867
     49 H6          11.6250    -8.9170    20.4170 hc         1 A1A       0.036867
     50 H3          13.0200    -9.7110    16.9620 hc         1 A1A       0.036867
     51 H2          13.2290    -8.6360    18.3440 hc         1 A1A       0.036867
     52 H4          13.5720   -10.3560    18.5010 hc         1 A1A       0.036867
     53 H9           8.6490    -9.8890    17.8700 hn         1 A1A       0.543000
     54 H12          4.4030   -11.5140    18.7060 hn         1 A1A       0.314500
     55 H17          4.1010   -14.7520    17.2970 hc         1 A1A       0.078200
     56 H16          4.2470   -14.0430    18.9670 hc         1 A1A       0.078200
     57 H15          6.6230   -14.6060    17.0410 hc         1 A1A       0.078200
     58 H14          6.7350   -13.8940    18.7140 hc         1 A1A       0.078200
     59 O2           8.5700   -11.3700    13.2220 o          1 A1A      -0.521000
@<TRIPOS>BOND
     1     1     3 ar  
     2     1     4 ar  
     3     2     5 1   
     4     2     6 1   
     5     2    32 1   
     6     3     9 ar  
     7     3    25 1   
     8     4    26 ar  
     9     4    33 1   
    10     5     9 ar  
    11     5    26 ar  
    12     6     7 2   
    13     6    34 1   
    14     7     9 1   
    15     7    27 1   
    16     8    29 1   
    17     8    30 1   
    18     8    31 1   
    19     8    35 1   
    20    10    17 ar  
    21    10    20 ar  
    22    10    36 1   
    23    11    14 1   
    24    11    17 ar  
    25    11    18 ar  
    26    12    13 1   
    27    12    15 1   
    28    12    37 1   
    29    12    38 1   
    30    13    14 1   
    31    13    39 1   
    32    13    40 1   
    33    14    41 1   
    34    14    42 1   
    35    15    16 2   
    36    15    18 1   
    37    15    59 2   
    38    17    43 1   
    39    18    19 ar  
    40    19    20 ar  
    41    19    44 1   
    42    20    21 1   
    43    21    22 1   
    44    21    25 1   
    45    21    45 1   
    46    22    23 1   
    47    22    24 1   
    48    22    46 1   
    49    23    47 1   
    50    23    48 1   
    51    23    49 1   
    52    24    50 1   
    53    24    51 1   
    54    24    52 1   
    55    25    53 1   
    56    27    28 2   
    57    27    29 1   
    58    29    54 1   
    59    30    31 1   
    60    30    55 1   
    61    30    56 1   
    62    31    57 1   
    63    31    58 1   
@<TRIPOS>SUBSTRUCTURE
     1 A1A         1 TEMP              0 ****  ****    0 ROOT
