@<TRIPOS>MOLECULE
A1A
   19    19     1     0     0
SMALL
No Charge or Current Charge


@<TRIPOS>ATOM
      1 N1          17.0790    -6.4910    14.9660 nv         1 A1A      -1.099000
      2 C4          21.0820    -5.4720    14.5040 ca         1 A1A       0.246900
      3 C5          19.1610    -6.4600    13.6910 ca         1 A1A       0.242900
      4 C6          18.4060    -6.1220    14.8530 ca         1 A1A       0.346000
      5 N           20.4690    -6.1470    13.5080 nb         1 A1A      -0.605000
      6 C           18.6820    -4.1790    19.4120 c3         1 A1A       0.154900
      7 O           19.2300    -4.6070    18.1510 os         1 A1A      -0.435100
      8 C2          19.0590    -5.4120    15.8900 ca         1 A1A      -0.220600
      9 C3          20.4280    -5.0910    15.6900 ca         1 A1A      -0.054000
     10 O1          17.1430    -4.9800    17.3040 o          1 A1A      -0.523000
     11 H6          16.5380    -6.0760    15.7280 hn         1 A1A       0.499500
     12 H7          16.5590    -6.7850    14.1390 hn         1 A1A       0.499500
     13 H4          22.1320    -5.2250    14.3470 h4         1 A1A       0.025100
     14 H5          18.6920    -7.0090    12.8740 h4         1 A1A       0.017100
     15 H2          19.4880    -3.9030    20.1040 h1         1 A1A       0.049700
     16 H           18.0330    -3.3040    19.2810 h1         1 A1A       0.049700
     17 H1          18.0950    -4.9820    19.8770 h1         1 A1A       0.049700
     18 H3          20.9960    -4.5430    16.4370 ha         1 A1A       0.134000
     19 C1          18.3600    -4.9920    17.1620 c          1 A1A       0.622700
@<TRIPOS>BOND
     1     1     4 1   
     2     1    11 1   
     3     1    12 1   
     4     2     5 ar  
     5     2     9 ar  
     6     2    13 1   
     7     3     4 ar  
     8     3     5 ar  
     9     3    14 1   
    10     4     8 ar  
    11     6     7 1   
    12     6    15 1   
    13     6    16 1   
    14     6    17 1   
    15     7    19 1   
    16     8     9 ar  
    17     8    19 1   
    18     9    18 1   
    19    10    19 2   
@<TRIPOS>SUBSTRUCTURE
     1 A1A         1 TEMP              0 ****  ****    0 ROOT
