@<TRIPOS>MOLECULE
A1A
   47    50     1     0     0
SMALL
No Charge or Current Charge


@<TRIPOS>ATOM
      1 C10          5.6540     3.7950    47.2360 ca         1 A1A       0.366900
      2 C13          5.3530     1.9280    48.6640 c5         1 A1A      -0.008100
      3 C15          1.0310     4.4180    49.6510 ca         1 A1A      -0.146300
      4 C17          0.5780     6.7780    50.0650 ca         1 A1A      -0.159000
      5 C20          1.5260     4.3000    50.9660 ca         1 A1A      -0.007000
      6 C24          1.2260     7.7500    53.5830 c6         1 A1A       0.187600
      7 C02          0.1420     2.0300    49.2430 c3         1 A1A      -0.067700
      8 C03         -1.2840     2.4870    49.6430 c3         1 A1A      -0.086600
      9 C04          1.0090     3.2140    48.7080 c3         1 A1A       0.293800
     10 N05          2.3910     2.7740    48.4740 nu         1 A1A      -0.923100
     11 C06          3.3880     3.4670    47.8080 ca         1 A1A       0.424900
     12 N07          3.0470     4.5320    47.0540 nb         1 A1A      -0.285000
     13 C08          4.0590     5.1760    46.4230 ca         1 A1A       0.183900
     14 N09          5.3730     4.8580    46.4750 nb         1 A1A      -0.258000
     15 N11          6.9250     3.3150    47.4310 nu         1 A1A      -0.902100
     16 C12          6.7800     1.9170    47.9750 c5         1 A1A       0.201800
     17 C14          4.7200     3.0680    47.9120 ca         1 A1A      -0.344300
     18 C16          0.5620     5.6680    49.2050 ca         1 A1A      -0.019000
     19 C18          1.0540     6.6610    51.3800 ca         1 A1A       0.203100
     20 C19          1.5420     5.4100    51.8310 ca         1 A1A      -0.145500
     21 S21          2.2100     5.1660    53.5190 sx         1 A1A       0.253200
     22 O22          3.5930     4.5560    53.3840 o          1 A1A      -0.504000
     23 C23          2.4610     6.9260    53.9410 c6         1 A1A      -0.092100
     24 O25          1.0470     7.8070    52.1550 os         1 A1A      -0.337100
     25 H1           4.8300     0.9720    48.5420 hc         1 A1A       0.053200
     26 H131         5.4250     2.1420    49.7360 hc         1 A1A       0.053200
     27 H171         0.2160     7.7400    49.7100 ha         1 A1A       0.130000
     28 H201         1.9060     3.3440    51.3180 ha         1 A1A       0.120000
     29 H242         0.3300     7.3080    54.0420 h1         1 A1A       0.059700
     30 H241         1.3330     8.7760    53.9630 h1         1 A1A       0.059700
     31 H013         1.0490     0.4490    48.0080 hc         1 A1A       0.037367
     32 H012        -0.5560     0.0430    48.6320 hc         1 A1A       0.037367
     33 H011        -0.3950     1.1920    47.2870 hc         1 A1A       0.037367
     34 H021         0.6190     1.6400    50.1500 hc         1 A1A       0.043700
     35 H031        -1.2530     3.2280    50.4520 hc         1 A1A       0.037367
     36 H033        -1.8050     2.9340    48.7880 hc         1 A1A       0.037367
     37 H032        -1.8780     1.6370    49.9990 hc         1 A1A       0.037367
     38 H041         0.5650     3.5280    47.7510 h1         1 A1A       0.084700
     39 H051         2.7180     1.9810    49.0170 hn         1 A1A       0.488000
     40 H081         3.7870     6.0360    45.8140 h5         1 A1A       0.040100
     41 H111         7.5900     3.5360    46.6860 hn         1 A1A       0.491000
     42 H2           6.7880     1.1800    47.1580 h1         1 A1A       0.044700
     43 H121         7.5800     1.6400    48.6760 h1         1 A1A       0.044700
     44 H161         0.1860     5.7830    48.1900 ha         1 A1A       0.123000
     45 H231         2.6790     6.9650    55.0160 h1         1 A1A       0.099200
     46 H232         3.3360     7.2690    53.3730 h1         1 A1A       0.099200
     47 C01          0.0560     0.8590    48.2300 c3         1 A1A      -0.086600
@<TRIPOS>BOND
     1     1    14 ar  
     2     1    15 1   
     3     1    17 ar  
     4     2    16 1   
     5     2    17 1   
     6     2    25 1   
     7     2    26 1   
     8     3     5 ar  
     9     3     9 1   
    10     3    18 ar  
    11     4    18 ar  
    12     4    19 ar  
    13     4    27 1   
    14     5    20 ar  
    15     5    28 1   
    16     6    23 1   
    17     6    24 1   
    18     6    29 1   
    19     6    30 1   
    20     7     8 1   
    21     7     9 1   
    22     7    34 1   
    23     7    47 1   
    24     8    35 1   
    25     8    36 1   
    26     8    37 1   
    27     9    10 1   
    28     9    38 1   
    29    10    11 1   
    30    10    39 1   
    31    11    12 ar  
    32    11    17 ar  
    33    12    13 ar  
    34    13    14 ar  
    35    13    40 1   
    36    15    16 1   
    37    15    41 1   
    38    16    42 1   
    39    16    43 1   
    40    18    44 1   
    41    19    20 ar  
    42    19    24 1   
    43    20    21 1   
    44    21    22 2   
    45    21    23 1   
    46    23    45 1   
    47    23    46 1   
    48    31    47 1   
    49    32    47 1   
    50    33    47 1   
@<TRIPOS>SUBSTRUCTURE
     1 A1A         1 TEMP              0 ****  ****    0 ROOT
