@<TRIPOS>MOLECULE
A1A
   23    23     1     0     0
SMALL
No Charge or Current Charge


@<TRIPOS>ATOM
      1 C4          13.1990    21.8050     8.8970 ca         1 A1A      -0.062500
      2 C5          13.4230    21.4560     7.5470 ca         1 A1A      -0.197300
      3 C6          14.7290    21.5700     7.0220 ca         1 A1A      -0.062500
      4 C7          15.7890    22.0090     7.8340 ca         1 A1A      -0.107000
      5 C8          12.2640    20.9880     6.6600 c3         1 A1A       0.356300
      6 N           17.2650    21.7170    10.8560 n7         1 A1A      -0.859400
      7 C           18.4090    22.0710    11.7190 c3         1 A1A       0.143100
      8 C2          15.5640    22.3480     9.1820 ca         1 A1A      -0.058300
      9 C3          14.2620    22.2440     9.7060 ca         1 A1A      -0.107000
     10 F           11.3020    20.3470     7.3640 f          1 A1A      -0.115000
     11 F1          11.6690    22.0310     6.0380 f          1 A1A      -0.115000
     12 F2          12.6690    20.1310     5.6940 f          1 A1A      -0.115000
     13 H7          12.2010    21.7400     9.3260 ha         1 A1A       0.129000
     14 H8          14.9290    21.3210     5.9820 ha         1 A1A       0.129000
     15 H9          16.7890    22.0880     7.4130 ha         1 A1A       0.127000
     16 H3          17.5700    20.9860    10.2000 hn         1 A1A       0.412000
     17 H1          18.7560    21.1920    12.2800 h1         1 A1A       0.032367
     18 H2          19.2500    22.4470    11.1210 h1         1 A1A       0.032367
     19 H           18.1280    22.8470    12.4430 h1         1 A1A       0.032367
     20 H5          16.3450    23.6280    10.7210 h1         1 A1A       0.041700
     21 H4          17.4910    23.2700     9.4220 h1         1 A1A       0.041700
     22 H6          14.0740    22.5050    10.7450 ha         1 A1A       0.127000
     23 C1          16.7120    22.8300    10.0610 c3         1 A1A       0.197100
@<TRIPOS>BOND
     1     1     2 ar  
     2     1     9 ar  
     3     1    13 1   
     4     2     3 ar  
     5     2     5 1   
     6     3     4 ar  
     7     3    14 1   
     8     4     8 ar  
     9     4    15 1   
    10     5    10 1   
    11     5    11 1   
    12     5    12 1   
    13     6     7 1   
    14     6    16 1   
    15     6    23 1   
    16     7    17 1   
    17     7    18 1   
    18     7    19 1   
    19     8     9 ar  
    20     8    23 1   
    21     9    22 1   
    22    20    23 1   
    23    21    23 1   
@<TRIPOS>SUBSTRUCTURE
     1 A1A         1 TEMP              0 ****  ****    0 ROOT
