@<TRIPOS>MOLECULE
A1A
   58    61     1     0     0
SMALL
abcg2


@<TRIPOS>ATOM
      1 N1           9.3730    -9.3760    18.3770 nu         1 A1A      -0.919100
      2 N3           6.6060    -6.3130    18.6300 nb         1 A1A      -0.235000
      3 C4           6.3230    -9.8380    19.0910 cc         1 A1A      -0.120200
      4 C5           7.1030    -8.6920    18.7940 ca         1 A1A      -0.275800
      5 C6           8.4470    -8.4100    18.4600 ca         1 A1A       0.444900
      6 C7          10.7400    -9.1460    17.9560 c3         1 A1A       0.289800
      7 C8          10.8190    -8.8950    16.4660 ca         1 A1A      -0.108300
      8 C10         11.6030    -7.5810    14.5960 ca         1 A1A      -0.131000
      9 C13         10.2250    -9.7670    15.5680 ca         1 A1A      -0.006000
     10 C15         10.1950    -8.8810    11.2860 c6         1 A1A      -0.056400
     11 C17         11.6170   -10.3320    18.3960 c3         1 A1A      -0.071700
     12 C20          7.8820    -6.1910    18.3290 ca         1 A1A       0.189900
     13 C21          6.2550    -7.5810    18.8620 ca         1 A1A       0.162500
     14 S            9.4370   -10.6680    13.1570 sy         1 A1A       1.051500
     15 O1           9.7100   -12.0340    13.5990 o          1 A1A      -0.521500
     16 C14         10.1600   -10.3770    11.5560 c6         1 A1A      -0.306400
     17 C16         11.1850    -8.1760    12.2020 c6         1 A1A      -0.049100
     18 C11         11.0090    -8.4420    13.6750 ca         1 A1A       0.013700
     19 C9          11.5070    -7.7970    15.9590 ca         1 A1A      -0.031000
     20 C12         10.3240    -9.5370    14.2000 ca         1 A1A      -0.246500
     21 C19         13.0530   -10.1550    17.9160 c3         1 A1A      -0.088100
     22 C18         11.5860   -10.5010    19.9130 c3         1 A1A      -0.088100
     23 N2           8.8060    -7.1470    18.2330 nb         1 A1A      -0.303000
     24 N4           5.0210    -8.0200    19.1970 na         1 A1A      -0.310400
     25 C3           5.0510    -9.3940    19.3320 cd         1 A1A      -0.166300
     26 C2           3.9000   -10.2480    19.6930 c          1 A1A       0.636300
     27 O            3.9700   -11.4600    19.5330 o          1 A1A      -0.589100
     28 N            2.8120    -9.6280    20.1810 ns         1 A1A      -0.506900
     29 C1           1.6160   -10.3430    20.5830 c3         1 A1A       0.103000
     30 C            1.6820   -10.8800    22.0050 c3         1 A1A      -0.118100
     31 H9           9.0650   -10.3310    18.4670 hn         1 A1A       0.500000
     32 H8           6.6480   -10.8660    19.1420 ha         1 A1A       0.219000
     33 H           11.1060    -8.2520    18.4700 h1         1 A1A       0.083700
     34 H11         12.1440    -6.7160    14.2310 ha         1 A1A       0.116000
     35 H12          9.6820   -10.6310    15.9330 ha         1 A1A       0.128000
     36 H15         10.4910    -8.7250    10.2490 hc         1 A1A       0.066700
     37 H16          9.1950    -8.4570    11.3910 hc         1 A1A       0.066700
     38 H19         11.2120   -11.2400    17.9310 hc         1 A1A       0.052700
     39 H26          8.2340    -5.1830    18.1310 h5         1 A1A       0.043100
     40 H13         11.1590   -10.8150    11.5580 h1         1 A1A       0.106200
     41 H14          9.5360   -10.9220    10.8450 h1         1 A1A       0.106200
     42 H17         12.2000    -8.4810    11.9260 hc         1 A1A       0.063700
     43 H18         11.1380    -7.1000    12.0320 hc         1 A1A       0.063700
     44 H10         11.9750    -7.0990    16.6430 ha         1 A1A       0.122000
     45 H24         13.6760   -10.9690    18.2880 hc         1 A1A       0.039033
     46 H23         13.1310   -10.1520    16.8300 hc         1 A1A       0.039033
     47 H25         13.4780    -9.2180    18.2850 hc         1 A1A       0.039033
     48 H21         12.2120   -11.3420    20.2130 hc         1 A1A       0.039033
     49 H22         11.9720    -9.6080    20.4090 hc         1 A1A       0.039033
     50 H20         10.5840   -10.6890    20.2960 hc         1 A1A       0.039033
     51 H1           4.2070    -7.4260    19.2250 hn         1 A1A       0.360000
     52 H7           2.8650    -8.6580    20.4450 hn         1 A1A       0.307500
     53 H6           1.4420   -11.1550    19.8770 h1         1 A1A       0.055200
     54 H5           0.7790    -9.6520    20.4820 h1         1 A1A       0.055200
     55 H4           0.7480   -11.3800    22.2610 hc         1 A1A       0.043033
     56 H3           2.4910   -11.6000    22.1200 hc         1 A1A       0.043033
     57 H2           1.8360   -10.0730    22.7230 hc         1 A1A       0.043033
     58 O2           8.0410   -10.2340    13.1190 o          1 A1A      -0.521500
@<TRIPOS>BOND
     1     1     5 1   
     2     1     6 1   
     3     1    31 1   
     4     2    12 ar  
     5     2    13 ar  
     6     3     4 1   
     7     3    25 2   
     8     3    32 1   
     9     4     5 ar  
    10     4    13 ar  
    11     5    23 ar  
    12     6     7 1   
    13     6    11 1   
    14     6    33 1   
    15     7     9 ar  
    16     7    19 ar  
    17     8    18 ar  
    18     8    19 ar  
    19     8    34 1   
    20     9    20 ar  
    21     9    35 1   
    22    10    16 1   
    23    10    17 1   
    24    10    36 1   
    25    10    37 1   
    26    11    21 1   
    27    11    22 1   
    28    11    38 1   
    29    12    23 ar  
    30    12    39 1   
    31    13    24 1   
    32    14    15 2   
    33    14    16 1   
    34    14    20 1   
    35    14    58 2   
    36    16    40 1   
    37    16    41 1   
    38    17    18 1   
    39    17    42 1   
    40    17    43 1   
    41    18    20 ar  
    42    19    44 1   
    43    21    45 1   
    44    21    46 1   
    45    21    47 1   
    46    22    48 1   
    47    22    49 1   
    48    22    50 1   
    49    24    25 1   
    50    24    51 1   
    51    25    26 1   
    52    26    27 2   
    53    26    28 1   
    54    28    29 1   
    55    28    52 1   
    56    29    30 1   
    57    29    53 1   
    58    29    54 1   
    59    30    55 1   
    60    30    56 1   
    61    30    57 1   
@<TRIPOS>SUBSTRUCTURE
     1 A1A         1 TEMP              0 ****  ****    0 ROOT
