@<TRIPOS>MOLECULE
A1A
   23    23     1     0     0
SMALL
abcg2


@<TRIPOS>ATOM
      1 C4          13.3770    21.4960     8.9570 ca         1 A1A      -0.062500
      2 C5          13.4280    21.5090     7.5680 ca         1 A1A      -0.197300
      3 C6          14.5970    21.9070     6.9270 ca         1 A1A      -0.062500
      4 C7          15.7040    22.2710     7.6740 ca         1 A1A      -0.107000
      5 C8          12.2670    21.0670     6.7370 c3         1 A1A       0.356300
      6 N           17.0770    21.8100    11.0210 n7         1 A1A      -0.859400
      7 C           18.2130    22.2180    11.8220 c3         1 A1A       0.143100
      8 C2          15.6700    22.2550     9.0660 ca         1 A1A      -0.058300
      9 C3          14.4910    21.8660     9.6950 ca         1 A1A      -0.107000
     10 F           11.1910    20.7630     7.4710 f          1 A1A      -0.115000
     11 F1          11.8860    22.0040     5.8560 f          1 A1A      -0.115000
     12 F2          12.5660    19.9760     6.0130 f          1 A1A      -0.115000
     13 H7          12.4790    21.1960     9.4790 ha         1 A1A       0.129000
     14 H8          14.6600    21.9240     5.8460 ha         1 A1A       0.129000
     15 H9          16.6130    22.5660     7.1630 ha         1 A1A       0.127000
     16 H3          17.2190    20.8580    10.7050 hn         1 A1A       0.412000
     17 H1          18.3550    21.5140    12.6420 h1         1 A1A       0.032367
     18 H2          19.1570    22.2820    11.2640 h1         1 A1A       0.032367
     19 H           18.0240    23.2010    12.2580 h1         1 A1A       0.032367
     20 H5          16.7360    23.6860    10.2260 h1         1 A1A       0.041700
     21 H4          17.7560    22.6970     9.2010 h1         1 A1A       0.041700
     22 H6          14.4420    21.8430    10.7760 ha         1 A1A       0.127000
     23 C1          16.8800    22.6610     9.8660 c3         1 A1A       0.197100
@<TRIPOS>BOND
     1     1     2 ar  
     2     1     9 ar  
     3     1    13 1   
     4     2     3 ar  
     5     2     5 1   
     6     3     4 ar  
     7     3    14 1   
     8     4     8 ar  
     9     4    15 1   
    10     5    10 1   
    11     5    11 1   
    12     5    12 1   
    13     6     7 1   
    14     6    16 1   
    15     6    23 1   
    16     7    17 1   
    17     7    18 1   
    18     7    19 1   
    19     8     9 ar  
    20     8    23 1   
    21     9    22 1   
    22    20    23 1   
    23    21    23 1   
@<TRIPOS>SUBSTRUCTURE
     1 A1A         1 TEMP              0 ****  ****    0 ROOT
