@<TRIPOS>MOLECULE
A1A
   39    41     1     0     0
SMALL
No Charge or Current Charge


@<TRIPOS>ATOM
      1 N1           6.6610   -14.3080    14.9630 nb         1 A1A      -0.180000
      2 N3          10.6130   -15.4600    15.0730 na         1 A1A      -0.332400
      3 C4           6.2950   -15.3270    17.1980 c          1 A1A       0.497600
      4 C5           7.1950   -14.9840    16.0160 ca         1 A1A       0.128500
      5 C6           7.4830   -14.0150    13.9250 ca         1 A1A       0.139900
      6 C7           9.3250   -14.9930    14.8560 ca         1 A1A       0.112500
      7 C8          10.7210   -16.1140    16.3190 cc         1 A1A      -0.189100
      8 C10          8.5640   -15.3320    15.9510 ca         1 A1A      -0.151800
      9 C13          4.2550   -13.1600    21.3820 ca         1 A1A      -0.095500
     10 C15          3.6040   -11.6080    19.6250 ca         1 A1A      -0.095500
     11 C14          3.9260   -11.8590    20.9680 ca         1 A1A      -0.026900
     12 C12          4.2600   -14.2120    20.4510 ca         1 A1A      -0.095000
     13 C16          3.6080   -12.6600    18.6940 ca         1 A1A      -0.095000
     14 C11          3.9330   -13.9730    19.1000 ca         1 A1A      -0.045300
     15 C3           3.9430   -15.1280    18.0950 c3         1 A1A       0.167000
     16 C1           2.5650   -15.3670    17.4250 c3         1 A1A      -0.211700
     17 C2           2.6430   -16.5350    16.4220 c          1 A1A       0.715000
     18 O1           2.8940   -17.6540    16.8440 o          1 A1A      -0.723000
     19 O            2.4340   -16.2910    15.2430 o          1 A1A      -0.723000
     20 C            1.4300   -15.5970    18.4560 c3         1 A1A      -0.059100
     21 N            4.9830   -14.9070    17.0890 ns         1 A1A      -0.454900
     22 O2           6.6840   -15.9290    18.1930 o          1 A1A      -0.629100
     23 C9           9.4480   -16.0300    16.8550 cd         1 A1A      -0.174200
     24 N2           8.7970   -14.3250    13.8150 nb         1 A1A      -0.208000
     25 H2          11.3740   -15.3380    14.4110 hn         1 A1A       0.354000
     26 H8           7.0400   -13.4730    13.0910 h5         1 A1A       0.051100
     27 H9          11.6390   -16.5590    16.6980 h4         1 A1A       0.207000
     28 H11          4.5190   -15.2160    20.7800 ha         1 A1A       0.122500
     29 H14          3.3600   -12.4540    17.6550 ha         1 A1A       0.122500
     30 H1           4.1960   -16.0480    18.6390 h1         1 A1A       0.078700
     31 H            2.3070   -14.4650    16.8570 hc         1 A1A       0.038700
     32 H5           1.2860   -14.7130    19.0890 hc         1 A1A       0.020367
     33 H3           0.4820   -15.7980    17.9420 hc         1 A1A       0.020367
     34 H4           1.6570   -16.4510    19.1060 hc         1 A1A       0.020367
     35 H7           4.7340   -14.4180    16.2370 hn         1 A1A       0.376500
     36 H10          9.1660   -16.4380    17.8240 ha         1 A1A       0.231000
     37 H12          4.5070   -13.3540    22.4220 ha         1 A1A       0.115000
     38 Br           3.9200   -10.4280    22.2350 br         1 A1A      -0.146100
     39 H13          3.3510   -10.6000    19.3040 ha         1 A1A       0.115000
@<TRIPOS>BOND
     1     1     4 ar  
     2     1     5 ar  
     3     2     6 1   
     4     2     7 1   
     5     2    25 1   
     6     3     4 1   
     7     3    21 1   
     8     3    22 2   
     9     4     8 ar  
    10     5    24 ar  
    11     5    26 1   
    12     6     8 ar  
    13     6    24 ar  
    14     7    23 2   
    15     7    27 1   
    16     8    23 1   
    17     9    11 ar  
    18     9    12 ar  
    19     9    37 1   
    20    10    11 ar  
    21    10    13 ar  
    22    10    39 1   
    23    11    38 1   
    24    12    14 ar  
    25    12    28 1   
    26    13    14 ar  
    27    13    29 1   
    28    14    15 1   
    29    15    16 1   
    30    15    21 1   
    31    15    30 1   
    32    16    17 1   
    33    16    20 1   
    34    16    31 1   
    35    17    18 1   
    36    17    19 1   
    37    20    32 1   
    38    20    33 1   
    39    20    34 1   
    40    21    35 1   
    41    23    36 1   
@<TRIPOS>SUBSTRUCTURE
     1 A1A         1 TEMP              0 ****  ****    0 ROOT
