@<TRIPOS>MOLECULE
A1A
   47    50     1     0     0
SMALL
abcg2


@<TRIPOS>ATOM
      1 C10          5.5880     3.6850    47.1050 ca         1 A1A       0.366900
      2 C13          5.4890     1.9100    48.6480 c5         1 A1A      -0.008100
      3 C15          1.0440     4.4410    49.7430 ca         1 A1A      -0.146300
      4 C17          0.4550     6.7480    50.1730 ca         1 A1A      -0.159000
      5 C20          1.5220     4.3510    51.0410 ca         1 A1A      -0.007000
      6 C24          1.2110     7.7150    53.5980 c6         1 A1A       0.187600
      7 C02          0.1630     2.1110    49.2540 c3         1 A1A      -0.067700
      8 C03         -1.2590     2.6240    49.4550 c3         1 A1A      -0.086600
      9 C04          1.0940     3.2500    48.8090 c3         1 A1A       0.293800
     10 N05          2.4440     2.7500    48.6530 nu         1 A1A      -0.923100
     11 C06          3.3930     3.3750    47.9200 ca         1 A1A       0.424900
     12 N07          3.0120     4.4150    47.1470 nb         1 A1A      -0.285000
     13 C08          3.9390     5.0030    46.4190 ca         1 A1A       0.183900
     14 N09          5.2320     4.7140    46.3370 nb         1 A1A      -0.258000
     15 N11          6.8580     3.2190    47.2210 nu         1 A1A      -0.902100
     16 C12          6.8400     1.9230    47.8960 c5         1 A1A       0.201800
     17 C14          4.7170     2.9650    47.9120 ca         1 A1A      -0.344300
     18 C16          0.5140     5.6580    49.3250 ca         1 A1A      -0.019000
     19 C18          0.9250     6.6520    51.4810 ca         1 A1A       0.203100
     20 C19          1.4590     5.4350    51.9100 ca         1 A1A      -0.145500
     21 S21          2.0780     5.1660    53.5730 sx         1 A1A       0.253200
     22 O22          3.3590     4.3850    53.4550 o          1 A1A      -0.504000
     23 C23          2.4650     6.9110    53.8560 c6         1 A1A      -0.092100
     24 O25          0.8500     7.7670    52.2290 os         1 A1A      -0.337100
     25 H1           5.0270     0.9220    48.6230 hc         1 A1A       0.053200
     26 H131         5.6210     2.1750    49.7010 hc         1 A1A       0.053200
     27 H171         0.0520     7.6920    49.8270 ha         1 A1A       0.130000
     28 H201         1.9570     3.4220    51.3910 ha         1 A1A       0.120000
     29 H242         0.3740     7.3200    54.1860 h1         1 A1A       0.059700
     30 H241         1.3680     8.7480    53.9070 h1         1 A1A       0.059700
     31 H013         1.1580     0.5260    48.1180 hc         1 A1A       0.037367
     32 H012        -0.5110     0.1790    48.5470 hc         1 A1A       0.037367
     33 H011        -0.1550     1.3280    47.2580 hc         1 A1A       0.037367
     34 H021         0.5250     1.7230    50.2150 hc         1 A1A       0.043700
     35 H031        -1.3270     3.3520    50.2640 hc         1 A1A       0.037367
     36 H033        -1.6340     3.1000    48.5460 hc         1 A1A       0.037367
     37 H032        -1.9300     1.8000    49.6990 hc         1 A1A       0.037367
     38 H041         0.7500     3.5860    47.8270 h1         1 A1A       0.084700
     39 H051         2.7570     2.0550    49.3120 hn         1 A1A       0.488000
     40 H081         3.6000     5.8330    45.8050 h5         1 A1A       0.040100
     41 H111         7.5170     3.3850    46.4770 hn         1 A1A       0.491000
     42 H2           6.8840     1.1070    47.1690 h1         1 A1A       0.044700
     43 H121         7.6900     1.8180    48.5680 h1         1 A1A       0.044700
     44 H161         0.1410     5.7570    48.3130 ha         1 A1A       0.123000
     45 H231         2.7660     7.0110    54.8990 h1         1 A1A       0.099200
     46 H232         3.2980     7.2000    53.2110 h1         1 A1A       0.099200
     47 C01          0.1720     0.9720    48.2380 c3         1 A1A      -0.086600
@<TRIPOS>BOND
     1     1    14 ar  
     2     1    15 1   
     3     1    17 ar  
     4     2    16 1   
     5     2    17 1   
     6     2    25 1   
     7     2    26 1   
     8     3     5 ar  
     9     3     9 1   
    10     3    18 ar  
    11     4    18 ar  
    12     4    19 ar  
    13     4    27 1   
    14     5    20 ar  
    15     5    28 1   
    16     6    23 1   
    17     6    24 1   
    18     6    29 1   
    19     6    30 1   
    20     7     8 1   
    21     7     9 1   
    22     7    34 1   
    23     7    47 1   
    24     8    35 1   
    25     8    36 1   
    26     8    37 1   
    27     9    10 1   
    28     9    38 1   
    29    10    11 1   
    30    10    39 1   
    31    11    12 ar  
    32    11    17 ar  
    33    12    13 ar  
    34    13    14 ar  
    35    13    40 1   
    36    15    16 1   
    37    15    41 1   
    38    16    42 1   
    39    16    43 1   
    40    18    44 1   
    41    19    20 ar  
    42    19    24 1   
    43    20    21 1   
    44    21    22 2   
    45    21    23 1   
    46    23    45 1   
    47    23    46 1   
    48    31    47 1   
    49    32    47 1   
    50    33    47 1   
@<TRIPOS>SUBSTRUCTURE
     1 A1A         1 TEMP              0 ****  ****    0 ROOT
