@<TRIPOS>MOLECULE
A1A
   22    22     1     0     0
SMALL
No Charge or Current Charge


@<TRIPOS>ATOM
      1 N1          18.0040    -7.8150    11.4880 nt         1 A1A      -0.547000
      2 C4          15.2430   -10.5020     9.4740 ca         1 A1A      -0.145000
      3 C5          15.9080    -9.3260     9.8590 ca         1 A1A      -0.073000
      4 C6          15.2390    -8.3510    10.6310 ca         1 A1A      -0.039400
      5 C7          17.1620    -6.7900    11.3190 cs         1 A1A       0.495400
      6 N           15.8760    -7.1390    11.0250 ns         1 A1A      -0.363100
      7 C           11.8640    -7.6620    12.1000 c3         1 A1A       0.145900
      8 C1          13.8820    -8.5470    10.9750 ca         1 A1A       0.144100
      9 C2          13.2210    -9.7340    10.5840 ca         1 A1A      -0.197000
     10 C3          13.9050   -10.7100     9.8410 ca         1 A1A      -0.061000
     11 S           17.6400    -5.2280    11.6220 s          1 A1A      -0.692400
     12 H8          18.9590    -7.6400    11.7620 hn         1 A1A       0.330000
     13 H9          17.6680    -8.7620    11.4010 hn         1 A1A       0.330000
     14 H5          15.7640   -11.2510     8.8800 ha         1 A1A       0.125000
     15 H6          16.9320    -9.1720     9.5280 ha         1 A1A       0.131000
     16 H7          15.2360    -6.3550    11.0850 hn         1 A1A       0.364500
     17 H1          11.5610    -6.7680    12.6590 h1         1 A1A       0.046367
     18 H2          11.2070    -7.7550    11.2260 h1         1 A1A       0.046367
     19 H           11.7140    -8.5350    12.7490 h1         1 A1A       0.046367
     20 H3          12.1820    -9.9150    10.8430 ha         1 A1A       0.124000
     21 H4          13.3940   -11.6220     9.5380 ha         1 A1A       0.118000
     22 O           13.2410    -7.5550    11.6960 os         1 A1A      -0.330100
@<TRIPOS>BOND
     1     1     5 1   
     2     1    12 1   
     3     1    13 1   
     4     2     3 ar  
     5     2    10 ar  
     6     2    14 1   
     7     3     4 ar  
     8     3    15 1   
     9     4     6 1   
    10     4     8 ar  
    11     5     6 1   
    12     5    11 2   
    13     6    16 1   
    14     7    17 1   
    15     7    18 1   
    16     7    19 1   
    17     7    22 1   
    18     8     9 ar  
    19     8    22 1   
    20     9    10 ar  
    21     9    20 1   
    22    10    21 1   
@<TRIPOS>SUBSTRUCTURE
     1 A1A         1 TEMP              0 ****  ****    0 ROOT
