@<TRIPOS>MOLECULE
A1A
   56    60     1     0     0
SMALL
No Charge or Current Charge


@<TRIPOS>ATOM
      1 N1          -9.8250    -8.6150    18.3810 nu         1 A1A      -0.922100
      2 N3         -12.7920    -5.7200    18.1820 nb         1 A1A      -0.232000
      3 C4         -12.7510    -9.1370    19.1750 cc         1 A1A      -0.122200
      4 C5         -12.1370    -7.9350    18.6900 ca         1 A1A      -0.275800
      5 C6         -10.8190    -7.6510    18.3140 ca         1 A1A       0.439900
      6 C7          -8.4330    -8.4950    17.9410 c3         1 A1A       0.324800
      7 C8          -8.3510    -8.2970    16.4270 ca         1 A1A      -0.099300
      8 C10         -7.4950    -7.0600    14.5080 ca         1 A1A      -0.129000
      9 C13         -9.0330    -9.1570    15.5450 ca         1 A1A      -0.007000
     10 C15         -9.0920    -8.2660    11.1930 c6         1 A1A      -0.056400
     11 C17         -7.6610    -9.7330    18.3820 cx         1 A1A      -0.154700
     12 C20        -11.4990    -5.5130    17.8370 ca         1 A1A       0.190900
     13 C21        -13.0950    -6.9580    18.6140 ca         1 A1A       0.163500
     14 S           -9.8730   -10.1030    13.0920 sy         1 A1A       1.051500
     15 O1         -11.2800    -9.6810    13.1120 o          1 A1A      -0.520500
     16 C14         -9.2330    -9.7830    11.4350 c6         1 A1A      -0.307400
     17 C16         -8.0090    -7.6540    12.1100 c6         1 A1A      -0.049100
     18 C11         -8.1800    -7.9090    13.6180 ca         1 A1A       0.011700
     19 C9          -7.5790    -7.2470    15.8970 ca         1 A1A      -0.039000
     20 C12         -8.9530    -8.9720    14.1500 ca         1 A1A      -0.242500
     21 C19         -6.9990    -9.8040    19.7410 cx         1 A1A      -0.120400
     22 C18         -6.1530    -9.7000    18.4940 cx         1 A1A      -0.120400
     23 N2         -10.4930    -6.4180    17.8830 nb         1 A1A      -0.298000
     24 N4         -14.3100    -7.4780    19.0330 na         1 A1A      -0.309400
     25 C3         -14.0930    -8.8450    19.3840 cd         1 A1A      -0.164300
     26 C2         -15.0680    -9.8580    19.8930 c          1 A1A       0.636300
     27 O          -14.7690   -11.0130    20.1640 o          1 A1A      -0.590100
     28 N          -16.3510    -9.3730    20.0280 ns         1 A1A      -0.506900
     29 C1         -17.4870   -10.1460    20.5330 c3         1 A1A       0.103000
     30 C          -17.4690   -10.2650    22.0670 c3         1 A1A      -0.118100
     31 H9         -10.1000    -9.4960    18.8050 hn         1 A1A       0.504000
     32 H8         -12.2830   -10.1050    19.3520 ha         1 A1A       0.219000
     33 H           -7.9800    -7.6210    18.4320 h1         1 A1A       0.080700
     34 H11         -6.8860    -6.2460    14.1210 ha         1 A1A       0.115000
     35 H12         -9.6330    -9.9710    15.9490 ha         1 A1A       0.132000
     36 H16         -8.8230    -8.0830    10.1430 hc         1 A1A       0.065700
     37 H15        -10.0540    -7.7590    11.3550 hc         1 A1A       0.065700
     38 H19         -8.0890   -10.6540    17.9920 hc         1 A1A       0.087700
     39 H24        -11.2410    -4.5150    17.4880 h5         1 A1A       0.044100
     40 H14         -8.2620   -10.2910    11.3770 h1         1 A1A       0.105700
     41 H13         -9.9400   -10.2510    10.7400 h1         1 A1A       0.105700
     42 H17         -7.0250    -8.0360    11.8030 hc         1 A1A       0.063200
     43 H18         -7.9720    -6.5710    11.9280 hc         1 A1A       0.063200
     44 H10         -7.0410    -6.5750    16.5610 ha         1 A1A       0.117000
     45 H22         -7.0170   -10.7580    20.2640 hc         1 A1A       0.076200
     46 H23         -7.0600    -8.9310    20.3870 hc         1 A1A       0.076200
     47 H20         -5.6020   -10.5830    18.1780 hc         1 A1A       0.076200
     48 H21         -5.6450    -8.7560    18.3040 hc         1 A1A       0.076200
     49 H1         -15.1810    -6.9610    19.0730 hn         1 A1A       0.360000
     50 H7         -16.5020    -8.4070    19.7750 hn         1 A1A       0.307500
     51 H6         -17.4690   -11.1490    20.0850 h1         1 A1A       0.055200
     52 H5         -18.4150    -9.6530    20.2170 h1         1 A1A       0.055200
     53 H3         -18.3410   -10.8330    22.4140 hc         1 A1A       0.043367
     54 H2         -16.5650   -10.7820    22.4090 hc         1 A1A       0.043367
     55 H4         -17.4990    -9.2720    22.5320 hc         1 A1A       0.043367
     56 O2          -9.5130   -11.4770    13.4670 o          1 A1A      -0.520500
@<TRIPOS>BOND
     1     1     5 1   
     2     1     6 1   
     3     1    31 1   
     4     2    12 ar  
     5     2    13 ar  
     6     3     4 1   
     7     3    25 2   
     8     3    32 1   
     9     4     5 ar  
    10     4    13 ar  
    11     5    23 ar  
    12     6     7 1   
    13     6    11 1   
    14     6    33 1   
    15     7     9 ar  
    16     7    19 ar  
    17     8    18 ar  
    18     8    19 ar  
    19     8    34 1   
    20     9    20 ar  
    21     9    35 1   
    22    10    16 1   
    23    10    17 1   
    24    10    36 1   
    25    10    37 1   
    26    11    21 1   
    27    11    22 1   
    28    11    38 1   
    29    12    23 ar  
    30    12    39 1   
    31    13    24 1   
    32    14    15 2   
    33    14    16 1   
    34    14    20 1   
    35    14    56 2   
    36    16    40 1   
    37    16    41 1   
    38    17    18 1   
    39    17    42 1   
    40    17    43 1   
    41    18    20 ar  
    42    19    44 1   
    43    21    22 1   
    44    21    45 1   
    45    21    46 1   
    46    22    47 1   
    47    22    48 1   
    48    24    25 1   
    49    24    49 1   
    50    25    26 1   
    51    26    27 2   
    52    26    28 1   
    53    28    29 1   
    54    28    50 1   
    55    29    30 1   
    56    29    51 1   
    57    29    52 1   
    58    30    53 1   
    59    30    54 1   
    60    30    55 1   
@<TRIPOS>SUBSTRUCTURE
     1 A1A         1 TEMP              0 ****  ****    0 ROOT
