@<TRIPOS>MOLECULE
A1A
   31    32     1     0     0
SMALL
abcg2


@<TRIPOS>ATOM
      1 C4          17.8870    -5.0420    29.2770 ca         1 A1A      -0.083000
      2 C5          17.4110    -5.1800    27.9770 ca         1 A1A      -0.131300
      3 C6          17.7940    -4.2140    26.8920 c3         1 A1A       0.214100
      4 C7          19.1700    -3.9630    24.8930 c6         1 A1A       0.179500
      5 C8          20.3860    -4.5720    24.2030 c6         1 A1A      -0.114900
      6 C10         18.5950    -3.0010    22.6530 c6         1 A1A       0.155600
      7 N           18.7390    -4.8310    25.9770 n7         1 A1A      -0.856400
      8 C           16.5980    -6.2760    27.7180 ca         1 A1A       0.197000
      9 O           19.7140    -3.6280    22.0670 os         1 A1A      -0.447000
     10 C1          16.2530    -7.2020    28.6830 ca         1 A1A      -0.158000
     11 C11         18.0670    -3.7700    23.8540 c6         1 A1A      -0.114900
     12 C2          16.7440    -7.0370    29.9720 ca         1 A1A      -0.080000
     13 C3          17.5610    -5.9560    30.2710 ca         1 A1A      -0.131000
     14 C9          20.7800    -3.7570    22.9820 c6         1 A1A       0.155600
     15 F           16.1090    -6.4360    26.4760 f          1 A1A      -0.171000
     16 H3          18.5250    -4.1980    29.5100 ha         1 A1A       0.112000
     17 H5          16.9030    -3.9140    26.3350 h1         1 A1A       0.039700
     18 H4          18.1860    -3.2970    27.3570 h1         1 A1A       0.039700
     19 H7          19.4580    -2.9640    25.2670 h1         1 A1A       0.014700
     20 H9          20.1540    -5.6000    23.9060 hc         1 A1A       0.058200
     21 H12         18.8500    -1.9750    22.9600 h1         1 A1A       0.042450
     22 H13         17.8310    -2.9270    21.8780 h1         1 A1A       0.042450
     23 H6          19.5550    -5.1110    26.5110 hn         1 A1A       0.411000
     24 H           15.6110    -8.0360    28.4310 ha         1 A1A       0.132000
     25 H14         17.2160    -3.2210    24.2660 hc         1 A1A       0.058200
     26 H15         17.6980    -4.7520    23.5410 hc         1 A1A       0.058200
     27 H1          16.4830    -7.7550    30.7380 ha         1 A1A       0.117000
     28 H2          17.9440    -5.8240    31.2740 ha         1 A1A       0.117000
     29 H10         21.1320    -2.7640    23.3020 h1         1 A1A       0.042450
     30 H11         21.6020    -4.2360    22.4490 h1         1 A1A       0.042450
     31 H8          21.2340    -4.6170    24.8920 hc         1 A1A       0.058200
@<TRIPOS>BOND
     1     1     2 ar  
     2     1    13 ar  
     3     1    16 1   
     4     2     3 1   
     5     2     8 ar  
     6     3     7 1   
     7     3    17 1   
     8     3    18 1   
     9     4     5 1   
    10     4     7 1   
    11     4    11 1   
    12     4    19 1   
    13     5    14 1   
    14     5    20 1   
    15     5    31 1   
    16     6     9 1   
    17     6    11 1   
    18     6    21 1   
    19     6    22 1   
    20     7    23 1   
    21     8    10 ar  
    22     8    15 1   
    23     9    14 1   
    24    10    12 ar  
    25    10    24 1   
    26    11    25 1   
    27    11    26 1   
    28    12    13 ar  
    29    12    27 1   
    30    13    28 1   
    31    14    29 1   
    32    14    30 1   
@<TRIPOS>SUBSTRUCTURE
     1 A1A         1 TEMP              0 ****  ****    0 ROOT
