@<TRIPOS>MOLECULE
A1A
   39    41     1     0     0
SMALL
abcg2


@<TRIPOS>ATOM
      1 N1           6.5200   -14.7650    14.8950 nb         1 A1A      -0.180000
      2 N3          10.4800   -15.2350    15.0690 na         1 A1A      -0.332400
      3 C4           6.2500   -15.2150    17.2610 c          1 A1A       0.497600
      4 C5           7.1160   -15.0580    16.0440 ca         1 A1A       0.128500
      5 C6           7.2600   -14.6270    13.8000 ca         1 A1A       0.139900
      6 C7           9.1590   -15.0450    14.8620 ca         1 A1A       0.112500
      7 C8          10.6860   -15.5210    16.3940 cc         1 A1A      -0.189100
      8 C10          8.4960   -15.2190    16.1050 ca         1 A1A      -0.151800
      9 C13          4.0280   -13.3980    21.4160 ca         1 A1A      -0.095500
     10 C15          4.1270   -11.7490    19.6560 ca         1 A1A      -0.095500
     11 C14          4.0860   -12.0760    21.0050 ca         1 A1A      -0.026900
     12 C12          4.0050   -14.4000    20.4560 ca         1 A1A      -0.095000
     13 C16          4.0990   -12.7660    18.7150 ca         1 A1A      -0.095000
     14 C11          4.0340   -14.1010    19.0990 ca         1 A1A      -0.045300
     15 C3           3.9400   -15.1990    18.0650 c3         1 A1A       0.167000
     16 C1           2.5520   -15.2320    17.4000 c3         1 A1A      -0.211700
     17 C2           2.5640   -16.3140    16.2930 c          1 A1A       0.715000
     18 O1           2.4690   -17.4970    16.6710 o          1 A1A      -0.723000
     19 O            2.7000   -15.9080    15.1180 o          1 A1A      -0.723000
     20 C            1.4580   -15.4790    18.4290 c3         1 A1A      -0.059100
     21 N            4.9450   -15.0430    17.0350 ns         1 A1A      -0.454900
     22 O2           6.7360   -15.4830    18.3500 o          1 A1A      -0.629100
     23 C9           9.5020   -15.5230    17.0700 cd         1 A1A      -0.174200
     24 N2           8.5740   -14.7530    13.7150 nb         1 A1A      -0.208000
     25 H2          11.1980   -15.1750    14.3640 hn         1 A1A       0.354000
     26 H8           6.7310   -14.3870    12.8850 h5         1 A1A       0.051100
     27 H9          11.6840   -15.7050    16.7600 h4         1 A1A       0.207000
     28 H11          3.9620   -15.4340    20.7780 ha         1 A1A       0.122500
     29 H14          4.1310   -12.5030    17.6640 ha         1 A1A       0.122500
     30 H1           4.0950   -16.1600    18.5670 h1         1 A1A       0.078700
     31 H            2.3850   -14.2550    16.9340 hc         1 A1A       0.038700
     32 H5           1.3820   -14.6610    19.1470 hc         1 A1A       0.020367
     33 H3           0.4870   -15.5730    17.9420 hc         1 A1A       0.020367
     34 H4           1.6390   -16.3970    18.9890 hc         1 A1A       0.020367
     35 H7           4.6510   -14.8800    16.0800 hn         1 A1A       0.376500
     36 H10          9.3750   -15.7180    18.1200 ha         1 A1A       0.231000
     37 H12          4.0040   -13.6560    22.4660 ha         1 A1A       0.115000
     38 BR           4.1130   -10.6950    22.2970 br         1 A1A      -0.146100
     39 H13          4.1770   -10.7170    19.3340 ha         1 A1A       0.115000
@<TRIPOS>BOND
     1     1     4 ar  
     2     1     5 ar  
     3     2     6 1   
     4     2     7 1   
     5     2    25 1   
     6     3     4 1   
     7     3    21 1   
     8     3    22 2   
     9     4     8 ar  
    10     5    24 ar  
    11     5    26 1   
    12     6     8 ar  
    13     6    24 ar  
    14     7    23 2   
    15     7    27 1   
    16     8    23 1   
    17     9    11 ar  
    18     9    12 ar  
    19     9    37 1   
    20    10    11 ar  
    21    10    13 ar  
    22    10    39 1   
    23    11    38 1   
    24    12    14 ar  
    25    12    28 1   
    26    13    14 ar  
    27    13    29 1   
    28    14    15 1   
    29    15    16 1   
    30    15    21 1   
    31    15    30 1   
    32    16    17 1   
    33    16    20 1   
    34    16    31 1   
    35    17    18 1   
    36    17    19 1   
    37    20    32 1   
    38    20    33 1   
    39    20    34 1   
    40    21    35 1   
    41    23    36 1   
@<TRIPOS>SUBSTRUCTURE
     1 A1A         1 TEMP              0 ****  ****    0 ROOT
