@<TRIPOS>MOLECULE
A1A
   33    34     1     0     0
SMALL
abcg2


@<TRIPOS>ATOM
      1 N1           8.9050    21.0880    28.0160 nh         1 A1A      -0.764300
      2 N3           8.4760    19.2420    29.3380 nb         1 A1A      -0.251500
      3 C4           8.5080    22.0600    27.0140 c6         1 A1A       0.230300
      4 C5          10.1790    21.3360    28.6490 c6         1 A1A       0.230300
      5 C6          11.2930    21.4230    27.6090 c6         1 A1A       0.157800
      6 C7           8.0630    20.1060    28.3970 ca         1 A1A       0.392900
      7 C8           6.0440    19.0980    28.1630 ca         1 A1A       0.153900
      8 C10          7.6300    18.2900    29.6840 ca         1 A1A       0.153900
      9 N           10.8450    22.0620    26.3730 n3         1 A1A      -0.731600
     10 C           13.0080    21.6300    25.3080 c3         1 A1A      -0.092100
     11 C1          11.9510    22.6780    25.6450 c3         1 A1A       0.195500
     12 C2          11.4870    23.3410    24.3510 c3         1 A1A      -0.092100
     13 C3           9.7040    22.9190    26.6260 c6         1 A1A       0.157800
     14 C9           6.3690    18.1540    29.1230 ca         1 A1A      -0.296000
     15 N2           6.8640    20.0670    27.7960 nb         1 A1A      -0.251500
     16 H9           7.6960    22.6990    27.3780 h1         1 A1A       0.058700
     17 H10          8.1410    21.5420    26.1260 h1         1 A1A       0.058700
     18 H11         10.1260    22.2630    29.2280 h1         1 A1A       0.058700
     19 H12         10.3960    20.5390    29.3530 h1         1 A1A       0.058700
     20 H13         12.1260    21.9740    28.0730 h1         1 A1A       0.039200
     21 H14         11.6630    20.4180    27.3890 h1         1 A1A       0.039200
     22 H15          5.0770    19.0760    27.6700 h4         1 A1A       0.017100
     23 H17          7.9740    17.5980    30.4460 h4         1 A1A       0.017100
     24 H1          13.4500    21.1710    26.1920 hc         1 A1A       0.038700
     25 H           12.5760    20.8370    24.6940 hc         1 A1A       0.038700
     26 H2          13.8210    22.0890    24.7440 hc         1 A1A       0.038700
     27 H3          12.4290    23.4520    26.2730 h1         1 A1A       0.015700
     28 H4          10.8890    24.2360    24.5160 hc         1 A1A       0.038700
     29 H5          12.3540    23.6440    23.7630 hc         1 A1A       0.038700
     30 H6          10.9010    22.6430    23.7500 hc         1 A1A       0.038700
     31 H7           9.9020    23.6910    27.3870 h1         1 A1A       0.039200
     32 H8           9.4220    23.4520    25.7200 h1         1 A1A       0.039200
     33 H16          5.6880    17.3710    29.4180 ha         1 A1A       0.133000
@<TRIPOS>BOND
     1     1     3 1   
     2     1     4 1   
     3     1     6 1   
     4     2     6 ar  
     5     2     8 ar  
     6     3    13 1   
     7     3    16 1   
     8     3    17 1   
     9     4     5 1   
    10     4    18 1   
    11     4    19 1   
    12     5     9 1   
    13     5    20 1   
    14     5    21 1   
    15     6    15 ar  
    16     7    14 ar  
    17     7    15 ar  
    18     7    22 1   
    19     8    14 ar  
    20     8    23 1   
    21     9    11 1   
    22     9    13 1   
    23    10    11 1   
    24    10    24 1   
    25    10    25 1   
    26    10    26 1   
    27    11    12 1   
    28    11    27 1   
    29    12    28 1   
    30    12    29 1   
    31    12    30 1   
    32    13    31 1   
    33    13    32 1   
    34    14    33 1   
@<TRIPOS>SUBSTRUCTURE
     1 A1A         1 TEMP              0 ****  ****    0 ROOT
