@<TRIPOS>MOLECULE
A1A
   62    66     1     0     0
SMALL
abcg2


@<TRIPOS>ATOM
      1 N1           2.8680     4.9880    47.4260 nb         1 A1A      -0.300000
      2 N3           6.6050     3.5610    47.5400 na         1 A1A      -0.314400
      3 C4           3.1630     3.9290    48.1810 ca         1 A1A       0.431900
      4 C5           3.8390     5.5550    46.7100 ca         1 A1A       0.174900
      5 C6           5.3920     4.1480    47.4020 ca         1 A1A       0.149500
      6 C7           6.5100     2.5050    48.4200 cc         1 A1A       0.032700
      7 C8           7.6560     1.6960    48.7660 cc         1 A1A      -0.154800
      8 C13          5.2120     2.4050    48.8510 cd         1 A1A      -0.200200
      9 C15          0.7940     5.0900    49.8780 ca         1 A1A      -0.108300
     10 C17          0.1550     7.3860    50.2780 ca         1 A1A      -0.131000
     11 C20          1.3060     5.0380    51.1630 ca         1 A1A      -0.007000
     12 C21          1.3560     7.3610    54.4930 c6         1 A1A      -0.306400
     13 C22          1.4680     8.6190    53.6470 c6         1 A1A      -0.055400
     14 S            2.0020     5.9740    53.5810 sy         1 A1A       1.050500
     15 O1           1.5530     4.7170    54.1770 o          1 A1A      -0.522000
     16 C23          0.5230     8.5690    52.4560 c6         1 A1A      -0.049100
     17 C18          0.6630     7.3550    51.5760 ca         1 A1A       0.012700
     18 C16          0.2230     6.2830    49.4460 ca         1 A1A      -0.030000
     19 C19          1.2360     6.1530    51.9900 ca         1 A1A      -0.246500
     20 C3           0.8370     3.8720    48.9810 c3         1 A1A       0.289800
     21 C1          -0.1280     2.7690    49.4480 c3         1 A1A      -0.070700
     22 C2          -1.5400     3.3200    49.6190 c3         1 A1A      -0.087600
     23 C           -0.1340     1.6020    48.4640 c3         1 A1A      -0.087600
     24 N            2.1790     3.3370    48.8810 nu         1 A1A      -0.923100
     25 C14          4.4890     3.4500    48.2090 ca         1 A1A      -0.248800
     26 N2           5.1080     5.2060    46.6390 nb         1 A1A      -0.229000
     27 C12          8.9110     1.6810    48.1910 cd         1 A1A      -0.145000
     28 N5           9.6260     0.7500    48.8420 na         1 A1A       0.144800
     29 N4           8.9360     0.1690    49.8210 nd         1 A1A      -0.514800
     30 C9           7.7440     0.7220    49.7840 cc         1 A1A       0.274900
     31 C11         11.9010     1.2820    49.5770 c          1 A1A       0.590100
     32 O           11.4780     2.2680    50.1510 o          1 A1A      -0.569100
     33 N6          13.1630     0.8430    49.6500 nt         1 A1A      -0.611000
     34 H1           7.4460     3.8760    47.0820 hn         1 A1A       0.359000
     35 H10          3.5410     6.4120    46.1150 h5         1 A1A       0.040100
     36 H17          4.8330     1.6650    49.5390 ha         1 A1A       0.202000
     37 H19         -0.2950     8.3020    49.9150 ha         1 A1A       0.115000
     38 H20          1.7590     4.1210    51.5250 ha         1 A1A       0.127000
     39 H22          0.3200     7.1350    54.7520 h1         1 A1A       0.105700
     40 H21          1.9450     7.4110    55.4110 h1         1 A1A       0.105700
     41 H23          1.2180     9.4770    54.2720 hc         1 A1A       0.065700
     42 H24          2.5000     8.7640    53.3220 hc         1 A1A       0.065700
     43 H25         -0.5080     8.6040    52.8230 hc         1 A1A       0.063200
     44 H26          0.6550     9.4640    51.8450 hc         1 A1A       0.063200
     45 H18         -0.1770     6.3470    48.4410 ha         1 A1A       0.123000
     46 H            0.5230     4.1820    47.9800 h1         1 A1A       0.084700
     47 H5           0.2170     2.4020    50.4230 hc         1 A1A       0.050700
     48 H6          -1.6030     4.0650    50.4110 hc         1 A1A       0.038367
     49 H8          -1.8930     3.7820    48.6950 hc         1 A1A       0.038367
     50 H7          -2.2300     2.5140    49.8720 hc         1 A1A       0.038367
     51 H2           0.8450     1.1350    48.3610 hc         1 A1A       0.038367
     52 H4          -0.8320     0.8310    48.7930 hc         1 A1A       0.038367
     53 H3          -0.4510     1.9370    47.4740 hc         1 A1A       0.038367
     54 H9           2.4370     2.6000    49.5190 hn         1 A1A       0.496000
     55 H16          9.3320     2.2450    47.3720 h4         1 A1A       0.152000
     56 H11          6.9740     0.4180    50.4780 h4         1 A1A       0.044100
     57 H14         13.8480     1.3480    50.1880 hn         1 A1A       0.318000
     58 H15         13.4690     0.0090    49.1780 hn         1 A1A       0.318000
     59 C10         11.0130     0.4440    48.6590 c3         1 A1A      -0.006400
     60 O2           3.4420     6.1650    53.4090 o          1 A1A      -0.522000
     61 H12         11.1640    -0.6220    48.8300 h1         1 A1A       0.080700
     62 H13         11.2870     0.6460    47.6220 h1         1 A1A       0.080700
@<TRIPOS>BOND
     1     1     3 ar  
     2     1     4 ar  
     3     2     5 1   
     4     2     6 1   
     5     2    34 1   
     6     3    24 1   
     7     3    25 ar  
     8     4    26 ar  
     9     4    35 1   
    10     5    25 ar  
    11     5    26 ar  
    12     6     7 1   
    13     6     8 2   
    14     7    27 2   
    15     7    30 1   
    16     8    25 1   
    17     8    36 1   
    18     9    11 ar  
    19     9    18 ar  
    20     9    20 1   
    21    10    17 ar  
    22    10    18 ar  
    23    10    37 1   
    24    11    19 ar  
    25    11    38 1   
    26    12    13 1   
    27    12    14 1   
    28    12    39 1   
    29    12    40 1   
    30    13    16 1   
    31    13    41 1   
    32    13    42 1   
    33    14    15 2   
    34    14    19 1   
    35    14    60 2   
    36    16    17 1   
    37    16    43 1   
    38    16    44 1   
    39    17    19 ar  
    40    18    45 1   
    41    20    21 1   
    42    20    24 1   
    43    20    46 1   
    44    21    22 1   
    45    21    23 1   
    46    21    47 1   
    47    22    48 1   
    48    22    49 1   
    49    22    50 1   
    50    23    51 1   
    51    23    52 1   
    52    23    53 1   
    53    24    54 1   
    54    27    28 1   
    55    27    55 1   
    56    28    29 1   
    57    28    59 1   
    58    29    30 2   
    59    30    56 1   
    60    31    32 2   
    61    31    33 1   
    62    31    59 1   
    63    33    57 1   
    64    33    58 1   
    65    59    61 1   
    66    59    62 1   
@<TRIPOS>SUBSTRUCTURE
     1 A1A         1 TEMP              0 ****  ****    0 ROOT
