@<TRIPOS>MOLECULE
A1A
   59    63     1     0     0
SMALL
No Charge or Current Charge


@<TRIPOS>ATOM
      1 N1           8.8180    -6.8770    19.5810 nb         1 A1A      -0.315000
      2 N3           5.2880    -8.5210    20.9040 na         1 A1A      -0.306400
      3 C4           8.2830    -7.9960    19.0550 ca         1 A1A       0.447900
      4 C5           8.1320    -6.2950    20.5910 ca         1 A1A       0.187900
      5 C6           6.4470    -7.8380    20.5870 ca         1 A1A       0.143500
      6 C7           5.1170    -9.6590    20.0930 cc         1 A1A      -0.147100
      7 C8           6.2240    -9.6650    19.2460 cd         1 A1A      -0.176400
      8 C10          5.4770   -12.8010    17.2440 cx         1 A1A       0.047700
      9 C13          7.0690    -8.5050    19.5580 ca         1 A1A      -0.222800
     10 C15         11.0720    -7.4960    15.5030 ca         1 A1A      -0.040000
     11 C17         10.9070    -8.7290    13.3940 ca         1 A1A       0.012700
     12 C20         10.6450   -11.2140    11.6230 c6         1 A1A      -0.308400
     13 C21         10.3840    -9.8000    11.0650 c6         1 A1A      -0.055400
     14 C22         11.1520    -8.7300    11.8750 c6         1 A1A      -0.048100
     15 S            9.9470   -11.3790    13.2790 sy         1 A1A       1.053500
     16 O1          10.6270   -12.4900    13.9570 o          1 A1A      -0.521000
     17 C16         11.2370    -7.5620    14.1100 ca         1 A1A      -0.133000
     18 C18         10.4090    -9.8470    14.1080 ca         1 A1A      -0.247500
     19 C19         10.2460    -9.7780    15.5070 ca         1 A1A       0.001000
     20 C14         10.5790    -8.6050    16.2150 ca         1 A1A      -0.110300
     21 C3          10.4120    -8.5230    17.7340 c3         1 A1A       0.285800
     22 C1          11.2100    -9.6310    18.4990 c3         1 A1A      -0.069700
     23 C2          11.1080    -9.4940    20.0400 c3         1 A1A      -0.086600
     24 C           12.7000    -9.6680    18.0730 c3         1 A1A      -0.086600
     25 N            8.9760    -8.6030    18.0260 nu         1 A1A      -0.918100
     26 N2           6.9650    -6.7200    21.1250 nb         1 A1A      -0.243000
     27 C9           6.4590   -10.7230    18.2040 c          1 A1A       0.652300
     28 O            7.4220   -10.7590    17.4520 o          1 A1A      -0.629100
     29 N4           5.4760   -11.6870    18.1530 ns         1 A1A      -0.472900
     30 C12          4.5030   -13.9220    17.5080 cx         1 A1A      -0.134400
     31 C11          5.9760   -14.1260    17.7640 cx         1 A1A      -0.134400
     32 H1           4.6480    -8.2260    21.6360 hn         1 A1A       0.365000
     33 H10          8.5630    -5.3910    21.0170 h5         1 A1A       0.042100
     34 H11          4.2650   -10.3270    20.1940 h4         1 A1A       0.213000
     35 H13          5.6930   -12.5390    16.2060 h1         1 A1A       0.096700
     36 H18         11.3340    -6.5800    16.0280 ha         1 A1A       0.122000
     37 H21         11.7190   -11.4160    11.7200 h1         1 A1A       0.105200
     38 H22         10.1730   -11.9950    11.0150 h1         1 A1A       0.105200
     39 H23         10.7000    -9.7540    10.0130 hc         1 A1A       0.065200
     40 H24          9.3070    -9.5760    11.0710 hc         1 A1A       0.065200
     41 H25         12.2290    -8.8560    11.6980 hc         1 A1A       0.062700
     42 H26         10.9020    -7.7410    11.4670 hc         1 A1A       0.062700
     43 H19         11.6290    -6.6960    13.5830 ha         1 A1A       0.115000
     44 H20          9.8560   -10.6410    16.0450 ha         1 A1A       0.141000
     45 H           10.8070    -7.5470    18.0540 h1         1 A1A       0.091700
     46 H5          10.7780   -10.6050    18.2360 hc         1 A1A       0.054700
     47 H7          10.0760    -9.6300    20.3840 hc         1 A1A       0.036867
     48 H8          11.7190   -10.2560    20.5390 hc         1 A1A       0.036867
     49 H6          11.4560    -8.5070    20.3690 hc         1 A1A       0.036867
     50 H3          12.8060    -9.8930    17.0060 hc         1 A1A       0.036867
     51 H2          13.1860    -8.7050    18.2720 hc         1 A1A       0.036867
     52 H4          13.2430   -10.4440    18.6270 hc         1 A1A       0.036867
     53 H9           8.4950    -9.4370    17.6720 hn         1 A1A       0.543000
     54 H12          4.7110   -11.5800    18.8040 hn         1 A1A       0.314500
     55 H17          4.0640   -14.4200    16.6470 hc         1 A1A       0.078200
     56 H16          3.8450   -13.8410    18.3710 hc         1 A1A       0.078200
     57 H15          6.5290   -14.7600    17.0750 hc         1 A1A       0.078200
     58 H14          6.3110   -14.1760    18.7970 hc         1 A1A       0.078200
     59 O2           8.4850   -11.3840    13.1440 o          1 A1A      -0.521000
@<TRIPOS>BOND
     1     1     3 ar  
     2     1     4 ar  
     3     2     5 1   
     4     2     6 1   
     5     2    32 1   
     6     3     9 ar  
     7     3    25 1   
     8     4    26 ar  
     9     4    33 1   
    10     5     9 ar  
    11     5    26 ar  
    12     6     7 2   
    13     6    34 1   
    14     7     9 1   
    15     7    27 1   
    16     8    29 1   
    17     8    30 1   
    18     8    31 1   
    19     8    35 1   
    20    10    17 ar  
    21    10    20 ar  
    22    10    36 1   
    23    11    14 1   
    24    11    17 ar  
    25    11    18 ar  
    26    12    13 1   
    27    12    15 1   
    28    12    37 1   
    29    12    38 1   
    30    13    14 1   
    31    13    39 1   
    32    13    40 1   
    33    14    41 1   
    34    14    42 1   
    35    15    16 2   
    36    15    18 1   
    37    15    59 2   
    38    17    43 1   
    39    18    19 ar  
    40    19    20 ar  
    41    19    44 1   
    42    20    21 1   
    43    21    22 1   
    44    21    25 1   
    45    21    45 1   
    46    22    23 1   
    47    22    24 1   
    48    22    46 1   
    49    23    47 1   
    50    23    48 1   
    51    23    49 1   
    52    24    50 1   
    53    24    51 1   
    54    24    52 1   
    55    25    53 1   
    56    27    28 2   
    57    27    29 1   
    58    29    54 1   
    59    30    31 1   
    60    30    55 1   
    61    30    56 1   
    62    31    57 1   
    63    31    58 1   
@<TRIPOS>SUBSTRUCTURE
     1 A1A         1 TEMP              0 ****  ****    0 ROOT
