@<TRIPOS>MOLECULE
A1A
   27    28     1     0     0
SMALL
abcg2


@<TRIPOS>ATOM
      1 N1           6.8530    11.0210    25.6620 nu         1 A1A      -0.896100
      2 C4           6.2720    12.1600    26.3280 c3         1 A1A       0.257100
      3 C5           6.9660    12.5240    27.6210 ca         1 A1A      -0.093300
      4 C6           7.5390    11.5510    28.4350 ca         1 A1A      -0.097000
      5 C7           8.1330    11.8990    29.6410 ca         1 A1A      -0.114000
      6 C8           8.1630    13.2260    30.0500 ca         1 A1A      -0.110000
      7 C10          7.0060    13.8520    28.0350 ca         1 A1A      -0.097000
      8 N            9.5360    10.7650    23.5300 na         1 A1A       0.126800
      9 C           10.2180    10.0260    22.5010 c3         1 A1A       0.079900
     10 C1           9.8990    11.9250    24.0870 cc         1 A1A      -0.149000
     11 C2           8.9340    12.2580    25.0120 cd         1 A1A      -0.266000
     12 C3           8.0050    11.1980    24.9270 cd         1 A1A       0.484900
     13 C9           7.5960    14.2030    29.2430 ca         1 A1A      -0.114000
     14 N2           8.3800    10.3030    24.0280 nc         1 A1A      -0.590800
     15 H5           6.1840    10.4070    25.2240 hn         1 A1A       0.473000
     16 H7           6.2370    13.0470    25.6810 h1         1 A1A       0.042200
     17 H6           5.2340    11.9060    26.5510 h1         1 A1A       0.042200
     18 H8           7.5250    10.5150    28.1200 ha         1 A1A       0.117500
     19 H9           8.5760    11.1320    30.2620 ha         1 A1A       0.110500
     20 H10          8.6280    13.4980    30.9890 ha         1 A1A       0.110000
     21 H12          6.5770    14.6220    27.4040 ha         1 A1A       0.117500
     22 H1           9.5920     9.9320    21.6150 h1         1 A1A       0.052033
     23 H           11.1280    10.5550    22.2320 h1         1 A1A       0.052033
     24 H2          10.4830     9.0300    22.8540 h1         1 A1A       0.052033
     25 H3          10.8050    12.4340    23.7970 h4         1 A1A       0.148000
     26 H4           8.9100    13.1280    25.6470 ha         1 A1A       0.151000
     27 H11          7.6200    15.2420    29.5470 ha         1 A1A       0.110500
@<TRIPOS>BOND
     1     1     2 1   
     2     1    12 1   
     3     1    15 1   
     4     2     3 1   
     5     2    16 1   
     6     2    17 1   
     7     3     4 ar  
     8     3     7 ar  
     9     4     5 ar  
    10     4    18 1   
    11     5     6 ar  
    12     5    19 1   
    13     6    13 ar  
    14     6    20 1   
    15     7    13 ar  
    16     7    21 1   
    17     8     9 1   
    18     8    10 1   
    19     8    14 1   
    20     9    22 1   
    21     9    23 1   
    22     9    24 1   
    23    10    11 2   
    24    10    25 1   
    25    11    12 1   
    26    11    26 1   
    27    12    14 2   
    28    13    27 1   
@<TRIPOS>SUBSTRUCTURE
     1 A1A         1 TEMP              0 ****  ****    0 ROOT
