@<TRIPOS>MOLECULE
A1A
   31    32     1     0     0
SMALL
abcg2


@<TRIPOS>ATOM
      1 N1          22.0410    13.7800     0.1440 nc         1 A1A      -0.356000
      2 N3          23.7470    12.8380     1.1050 na         1 A1A      -0.367000
      3 C4          22.6430    13.6030     1.2830 cd         1 A1A       0.359800
      4 C5          23.7800    12.5690    -0.2250 cd         1 A1A       0.390800
      5 C6          24.8460    11.7290    -0.8340 c6         1 A1A      -0.104700
      6 C7          26.0590    11.6500     0.0920 c6         1 A1A      -0.081400
      7 C8          25.6170    11.3310     1.5150 c6         1 A1A      -0.092400
      8 N           20.9070    14.7240     2.5750 ns         1 A1A      -0.494900
      9 C           18.4550    16.1650     2.4920 c3         1 A1A      -0.094100
     10 O           19.8770    12.7350     2.7460 o          1 A1A      -0.602100
     11 C1          18.4690    14.6440     2.4740 c3         1 A1A      -0.161400
     12 C2          19.8080    13.9470     2.6100 c          1 A1A       0.610100
     13 C3          22.2290    14.1650     2.6060 c3         1 A1A       0.084700
     14 C9          24.7480    12.4420     2.0830 c6         1 A1A       0.078600
     15 N2          22.7600    13.1280    -0.8100 nc         1 A1A      -0.361000
     16 H9          24.4530    10.7230    -1.0050 hc         1 A1A       0.072200
     17 H8          25.1130    12.1310    -1.8120 hc         1 A1A       0.072200
     18 H10         26.7440    10.8840    -0.2720 hc         1 A1A       0.052200
     19 H11         26.6060    12.5970     0.0770 hc         1 A1A       0.052200
     20 H13         25.0650    10.3870     1.5260 hc         1 A1A       0.058700
     21 H12         26.4790    11.2060     2.1710 hc         1 A1A       0.058700
     22 H5          20.8240    15.7060     2.3740 hn         1 A1A       0.324500
     23 H           17.4280    16.5250     2.4410 hc         1 A1A       0.038367
     24 H2          18.8960    16.5680     3.4040 hc         1 A1A       0.038367
     25 H1          18.9830    16.5930     1.6380 hc         1 A1A       0.038367
     26 H4          17.8360    14.2530     3.2730 hc         1 A1A       0.074700
     27 H3          18.0260    14.2790     1.5440 hc         1 A1A       0.074700
     28 H6          22.9270    14.9490     2.9070 h1         1 A1A       0.062700
     29 H7          22.2870    13.3910     3.3750 h1         1 A1A       0.062700
     30 H15         24.2440    12.1140     2.9930 h1         1 A1A       0.056700
     31 H14         25.3550    13.3140     2.3360 h1         1 A1A       0.056700
@<TRIPOS>BOND
     1     1     3 2   
     2     1    15 1   
     3     2     3 1   
     4     2     4 1   
     5     2    14 1   
     6     3    13 1   
     7     4     5 1   
     8     4    15 2   
     9     5     6 1   
    10     5    16 1   
    11     5    17 1   
    12     6     7 1   
    13     6    18 1   
    14     6    19 1   
    15     7    14 1   
    16     7    20 1   
    17     7    21 1   
    18     8    12 1   
    19     8    13 1   
    20     8    22 1   
    21     9    11 1   
    22     9    23 1   
    23     9    24 1   
    24     9    25 1   
    25    10    12 2   
    26    11    12 1   
    27    11    26 1   
    28    11    27 1   
    29    13    28 1   
    30    13    29 1   
    31    14    30 1   
    32    14    31 1   
@<TRIPOS>SUBSTRUCTURE
     1 A1A         1 TEMP              0 ****  ****    0 ROOT
