@<TRIPOS>MOLECULE
A1A
   56    59     1     0     0
SMALL
abcg2


@<TRIPOS>ATOM
      1 N1           9.1740    -9.4250    13.6060 nu         1 A1A      -0.917100
      2 N3           6.3910    -7.4230    15.9210 nb         1 A1A      -0.236000
      3 C4           6.1390   -10.3130    13.8460 cc         1 A1A      -0.118200
      4 C5           6.9080    -9.2630    14.4090 ca         1 A1A      -0.275800
      5 C6           8.2420    -8.8000    14.3400 ca         1 A1A       0.444900
      6 C7          10.5190    -8.9180    13.4230 c3         1 A1A       0.293800
      7 C8          10.5330    -7.7290    12.4860 ca         1 A1A      -0.143300
      8 C10         11.1070    -5.4160    12.0460 ca         1 A1A      -0.161000
      9 C13         10.0110    -7.8190    11.2090 ca         1 A1A       0.028000
     10 C15         10.3900    -4.4620     8.6150 c6         1 A1A       0.177600
     11 C20          6.0540    -8.5130    15.2250 ca         1 A1A       0.160500
     12 S            9.3820    -6.9370     8.7240 sy         1 A1A       1.075500
     13 O1           8.1110    -7.6460     8.8150 o          1 A1A      -0.516000
     14 C14          9.1270    -5.2300     8.2830 c6         1 A1A      -0.359400
     15 O3          10.6320    -4.3890    10.0090 os         1 A1A      -0.333100
     16 C11         10.5940    -5.5060    10.7530 ca         1 A1A       0.227100
     17 C9          11.0740    -6.5090    12.8880 ca         1 A1A       0.001000
     18 C12         10.0470    -6.7260    10.3470 ca         1 A1A      -0.342500
     19 C16         11.4480   -10.0520    12.9620 c3         1 A1A      -0.070700
     20 C18         12.8580    -9.5240    12.7190 c3         1 A1A      -0.088600
     21 N2           8.5870    -7.7150    15.0340 nb         1 A1A      -0.305000
     22 C19          7.6590    -7.1040    15.7710 ca         1 A1A       0.188900
     23 N4           4.8280    -9.0780    15.1750 na         1 A1A      -0.309400
     24 C3           4.8660   -10.1720    14.3330 cd         1 A1A      -0.167300
     25 C2           3.7220   -11.0490    14.0080 c          1 A1A       0.636300
     26 O            3.8090   -11.8390    13.0770 o          1 A1A      -0.588100
     27 N            2.6150   -10.9170    14.7610 ns         1 A1A      -0.506900
     28 C1           1.4250   -11.7160    14.5490 c3         1 A1A       0.102000
     29 C            1.4700   -13.0660    15.2500 c3         1 A1A      -0.118100
     30 H9           8.8780   -10.2000    13.0320 hn         1 A1A       0.500000
     31 H8           6.4680   -11.0900    13.1740 ha         1 A1A       0.220000
     32 H           10.8800    -8.5750    14.3970 h1         1 A1A       0.083700
     33 H11         11.5240    -4.4750    12.3820 ha         1 A1A       0.134000
     34 H12          9.5610    -8.7470    10.8710 ha         1 A1A       0.126000
     35 H15         11.2540    -4.8980     8.1040 h1         1 A1A       0.079200
     36 H16         10.2870    -3.4340     8.2740 h1         1 A1A       0.079200
     37 H18         12.1600   -11.9690    13.6660 hc         1 A1A       0.039367
     38 H20         11.8280   -10.8130    14.9550 hc         1 A1A       0.039367
     39 H19         10.5000   -11.6380    14.1380 hc         1 A1A       0.039367
     40 H13          8.9240    -5.1970     7.2110 h1         1 A1A       0.121200
     41 H14          8.2590    -4.8570     8.8270 h1         1 A1A       0.121200
     42 H10         11.4790    -6.4140    13.8880 ha         1 A1A       0.126000
     43 H17         11.0630   -10.4500    12.0140 hc         1 A1A       0.049700
     44 H22         13.5300   -10.3440    12.4650 hc         1 A1A       0.039367
     45 H21         12.8980    -8.8050    11.9010 hc         1 A1A       0.039367
     46 H23         13.2520    -9.0360    13.6130 hc         1 A1A       0.039367
     47 H24          8.0010    -6.2280    16.3140 h5         1 A1A       0.043100
     48 H1           4.0150    -8.6800    15.6180 hn         1 A1A       0.360000
     49 H7           2.6480   -10.3870    15.6160 hn         1 A1A       0.306500
     50 H6           1.2800   -11.8480    13.4780 h1         1 A1A       0.055700
     51 H5           0.5780   -11.1340    14.9130 h1         1 A1A       0.055700
     52 H4           0.5420   -13.6110    15.0760 hc         1 A1A       0.043367
     53 H2           2.2930   -13.6760    14.8810 hc         1 A1A       0.043367
     54 H3           1.5890   -12.9450    16.3280 hc         1 A1A       0.043367
     55 C17         11.4780   -11.1810    13.9880 c3         1 A1A      -0.088600
     56 O2          10.4170    -7.4910     7.8550 o          1 A1A      -0.516000
@<TRIPOS>BOND
     1     1     5 1   
     2     1     6 1   
     3     1    30 1   
     4     2    11 ar  
     5     2    22 ar  
     6     3     4 1   
     7     3    24 2   
     8     3    31 1   
     9     4     5 ar  
    10     4    11 ar  
    11     5    21 ar  
    12     6     7 1   
    13     6    19 1   
    14     6    32 1   
    15     7     9 ar  
    16     7    17 ar  
    17     8    16 ar  
    18     8    17 ar  
    19     8    33 1   
    20     9    18 ar  
    21     9    34 1   
    22    10    14 1   
    23    10    15 1   
    24    10    35 1   
    25    10    36 1   
    26    11    23 1   
    27    12    13 2   
    28    12    14 1   
    29    12    18 1   
    30    12    56 2   
    31    14    40 1   
    32    14    41 1   
    33    15    16 1   
    34    16    18 ar  
    35    17    42 1   
    36    19    20 1   
    37    19    43 1   
    38    19    55 1   
    39    20    44 1   
    40    20    45 1   
    41    20    46 1   
    42    21    22 ar  
    43    22    47 1   
    44    23    24 1   
    45    23    48 1   
    46    24    25 1   
    47    25    26 2   
    48    25    27 1   
    49    27    28 1   
    50    27    49 1   
    51    28    29 1   
    52    28    50 1   
    53    28    51 1   
    54    29    52 1   
    55    29    53 1   
    56    29    54 1   
    57    37    55 1   
    58    38    55 1   
    59    39    55 1   
@<TRIPOS>SUBSTRUCTURE
     1 A1A         1 TEMP              0 ****  ****    0 ROOT
