@<TRIPOS>MOLECULE
A1A
   61    65     1     0     0
SMALL
No Charge or Current Charge


@<TRIPOS>ATOM
      1 N1           8.6660    -7.8330    15.0890 nb         1 A1A      -0.306000
      2 N3           4.8010    -9.1940    14.6640 na         1 A1A      -0.302400
      3 C4           8.3270    -8.8920    14.3280 ca         1 A1A       0.443900
      4 C5           7.6520    -7.2050    15.7330 ca         1 A1A       0.185900
      5 C6           6.0220    -8.5920    14.9300 ca         1 A1A       0.158500
      6 C7           4.9640   -10.2910    13.7940 cc         1 A1A      -0.054100
      7 C8           3.9160   -11.1540    13.2970 cc         1 A1A       0.089000
      8 C10          3.1680   -13.0530    11.9550 cd         1 A1A      -0.025400
      9 C13          2.6070   -10.9400    13.6710 cd         1 A1A      -0.331200
     10 C15          6.9880    -9.2870    14.2420 ca         1 A1A      -0.266800
     11 C17         11.2600    -6.6820    13.0600 ca         1 A1A      -0.028000
     12 C20         10.2300    -6.7620    10.4430 ca         1 A1A      -0.247500
     13 C21         10.2130    -7.9160    11.2520 ca         1 A1A      -0.005000
     14 C22         10.0700    -5.3630     7.9690 c6         1 A1A      -0.306400
     15 C24         10.8530    -4.2520    10.1230 c6         1 A1A      -0.050100
     16 S            9.5360    -6.8810     8.7850 sy         1 A1A       1.050500
     17 O1           8.0740    -6.8240     8.9130 o          1 A1A      -0.523000
     18 C23          9.8990    -4.1530     8.9110 c6         1 A1A      -0.055400
     19 C19         10.7640    -5.5490    10.9470 ca         1 A1A       0.013700
     20 C18         11.2790    -5.5300    12.2570 ca         1 A1A      -0.132000
     21 C16         10.7290    -7.8860    12.5620 ca         1 A1A      -0.106300
     22 C3          10.7160    -9.1390    13.4430 c3         1 A1A       0.290800
     23 C1          11.5690   -10.3070    12.8550 c3         1 A1A      -0.072700
     24 C2          13.0050    -9.8540    12.4880 c3         1 A1A      -0.088600
     25 C           11.6290   -11.5300    13.8070 c3         1 A1A      -0.088600
     26 N            9.3250    -9.5700    13.6460 nu         1 A1A      -0.922100
     27 N2           6.3370    -7.5310    15.6940 nb         1 A1A      -0.230000
     28 C14          6.3210   -10.3530    13.5290 cd         1 A1A      -0.164200
     29 C12          1.4900   -11.7780    13.2050 c          1 A1A       0.553200
     30 O            0.3370   -11.5650    13.5530 o          1 A1A      -0.560000
     31 N4           1.8450   -12.8340    12.3350 n          1 A1A      -0.270000
     32 C11          0.7680   -13.7140    11.8300 c3         1 A1A       0.077300
     33 C9           4.1890   -12.2480    12.4120 cc         1 A1A      -0.292000
     34 H1           3.9200    -8.8760    15.0490 hn         1 A1A       0.368000
     35 H10          7.9230    -6.3480    16.3480 h5         1 A1A       0.043100
     36 H12          3.3110   -13.8960    11.2830 h4         1 A1A       0.199000
     37 H16          2.3080   -10.1410    14.3340 ha         1 A1A       0.202000
     38 H18         11.6620    -6.6370    14.0690 ha         1 A1A       0.125000
     39 H20          9.7920    -8.8420    10.8630 ha         1 A1A       0.126000
     40 H21         11.1220    -5.5140     7.6960 h1         1 A1A       0.106700
     41 H22          9.4600    -5.2730     7.0620 h1         1 A1A       0.106700
     42 H25         11.8880    -4.1350     9.7720 hc         1 A1A       0.064700
     43 H26         10.6680    -3.3920    10.7810 hc         1 A1A       0.064700
     44 H24         10.1080    -3.2240     8.3610 hc         1 A1A       0.066200
     45 H23          8.8570    -4.0780     9.2560 hc         1 A1A       0.066200
     46 H19         11.7020    -4.6130    12.6600 ha         1 A1A       0.116000
     47 H           11.1560    -8.8800    14.4180 h1         1 A1A       0.082700
     48 H5          11.0930   -10.6420    11.9250 hc         1 A1A       0.050700
     49 H7          12.9930    -9.0740    11.7170 hc         1 A1A       0.039367
     50 H6          13.5270    -9.4580    13.3680 hc         1 A1A       0.039367
     51 H8          13.5890   -10.6950    12.0950 hc         1 A1A       0.039367
     52 H4          10.6290   -11.9350    14.0010 hc         1 A1A       0.039367
     53 H3          12.2310   -12.3340    13.3680 hc         1 A1A       0.039367
     54 H2          12.0780   -11.2530    14.7690 hc         1 A1A       0.039367
     55 H9           9.0090   -10.3770    13.1180 hn         1 A1A       0.499000
     56 H17          6.8040   -11.0840    12.8880 ha         1 A1A       0.202000
     57 H14          0.0380   -13.1190    11.2680 h1         1 A1A       0.054700
     58 H13          1.1760   -14.4890    11.1680 h1         1 A1A       0.054700
     59 H15          0.2620   -14.2010    12.6730 h1         1 A1A       0.054700
     60 H11          5.2080   -12.4450    12.0970 ha         1 A1A       0.202000
     61 O2          10.1700    -8.0170     8.1030 o          1 A1A      -0.523000
@<TRIPOS>BOND
     1     1     3 ar  
     2     1     4 ar  
     3     2     5 1   
     4     2     6 1   
     5     2    34 1   
     6     3    10 ar  
     7     3    26 1   
     8     4    27 ar  
     9     4    35 1   
    10     5    10 ar  
    11     5    27 ar  
    12     6     7 1   
    13     6    28 2   
    14     7     9 2   
    15     7    33 1   
    16     8    31 1   
    17     8    33 2   
    18     8    36 1   
    19     9    29 1   
    20     9    37 1   
    21    10    28 1   
    22    11    20 ar  
    23    11    21 ar  
    24    11    38 1   
    25    12    13 ar  
    26    12    16 1   
    27    12    19 ar  
    28    13    21 ar  
    29    13    39 1   
    30    14    16 1   
    31    14    18 1   
    32    14    40 1   
    33    14    41 1   
    34    15    18 1   
    35    15    19 1   
    36    15    42 1   
    37    15    43 1   
    38    16    17 2   
    39    16    61 2   
    40    18    44 1   
    41    18    45 1   
    42    19    20 ar  
    43    20    46 1   
    44    21    22 1   
    45    22    23 1   
    46    22    26 1   
    47    22    47 1   
    48    23    24 1   
    49    23    25 1   
    50    23    48 1   
    51    24    49 1   
    52    24    50 1   
    53    24    51 1   
    54    25    52 1   
    55    25    53 1   
    56    25    54 1   
    57    26    55 1   
    58    28    56 1   
    59    29    30 2   
    60    29    31 1   
    61    31    32 1   
    62    32    57 1   
    63    32    58 1   
    64    32    59 1   
    65    33    60 1   
@<TRIPOS>SUBSTRUCTURE
     1 A1A         1 TEMP              0 ****  ****    0 ROOT
