@<TRIPOS>MOLECULE
A1A
   19    20     1     0     0
SMALL
abcg2


@<TRIPOS>ATOM
      1 N1          18.8650    -2.4470    23.7740 nc         1 A1A      -0.278600
      2 N3          18.9580    -0.5850    22.5600 na         1 A1A       0.290900
      3 C4          19.6590     1.0300    24.5530 cc         1 A1A      -0.156000
      4 C5          19.4560     1.4700    23.2210 cc         1 A1A       0.322900
      5 N           16.9940    -0.3410    19.8840 n8         1 A1A      -1.006100
      6 C           18.5900    -1.5910    21.7150 cd         1 A1A      -0.384200
      7 O           19.3910    -0.7120    19.3960 o          1 A1A      -0.526000
      8 C1          18.5400    -2.7230    22.4990 cc         1 A1A       0.086600
      9 C2          19.1140    -1.1470    23.8070 cd         1 A1A      -0.089000
     10 C3          19.4860    -0.2860    24.8550 cd         1 A1A      -0.021000
     11 N2          19.1110     0.6920    22.2390 nd         1 A1A      -0.480800
     12 O1          17.8160    -2.6710    19.5540 o          1 A1A      -0.526000
     13 S           18.2590    -1.3710    20.0160 sy         1 A1A       1.199200
     14 H4          19.9440     1.7490    25.3090 ha         1 A1A       0.143000
     15 H5          19.5820     2.5120    22.9610 h4         1 A1A       0.048100
     16 H           16.1430    -0.6680    20.3270 hn         1 A1A       0.483000
     17 H1          17.2120     0.6160    20.1410 hn         1 A1A       0.483000
     18 H2          18.2820    -3.7200    22.1780 h4         1 A1A       0.253000
     19 H3          19.6180    -0.6810    25.8530 ha         1 A1A       0.156000
@<TRIPOS>BOND
     1     1     8 1   
     2     1     9 2   
     3     2     6 1   
     4     2     9 1   
     5     2    11 1   
     6     3     4 1   
     7     3    10 2   
     8     3    14 1   
     9     4    11 2   
    10     4    15 1   
    11     5    13 1   
    12     5    16 1   
    13     5    17 1   
    14     6     8 2   
    15     6    13 1   
    16     7    13 2   
    17     8    18 1   
    18     9    10 1   
    19    10    19 1   
    20    12    13 2   
@<TRIPOS>SUBSTRUCTURE
     1 A1A         1 TEMP              0 ****  ****    0 ROOT
