@<TRIPOS>MOLECULE
A1A
   61    66     1     0     0
SMALL
abcg2


@<TRIPOS>ATOM
      1 N1           8.7880    -7.1700    18.2410 nb         1 A1A      -0.297000
      2 N3           5.0150    -8.2650    19.0020 na         1 A1A      -0.313400
      3 C4           8.4800    -8.4570    18.4070 ca         1 A1A       0.437900
      4 C5           7.8160    -6.2630    18.3350 ca         1 A1A       0.183900
      5 C6           6.2390    -7.7510    18.7420 ca         1 A1A       0.158500
      6 C7           5.0980    -9.6390    19.0820 cc         1 A1A      -0.024300
      7 C8           3.9430   -10.4750    19.3720 cc         1 A1A      -0.040800
      8 C10          2.8990   -12.6660    19.2490 cd         1 A1A      -0.056000
      9 C13          0.6050   -10.5270    20.8830 cc         1 A1A       0.333700
     10 C15          6.4020   -10.0130    18.8770 cd         1 A1A      -0.174200
     11 C17         10.9210    -8.7600    16.4810 ca         1 A1A      -0.108300
     12 C20         11.1450    -8.2010    13.7110 ca         1 A1A       0.013700
     13 C21         10.4650    -9.3220    14.1850 ca         1 A1A      -0.246500
     14 C22         10.3520    -9.6040    15.5420 ca         1 A1A      -0.008000
     15 C24         10.3940    -8.5800    11.2910 c6         1 A1A      -0.056400
     16 S            9.6180   -10.4310    13.0890 sy         1 A1A       1.051500
     17 O            8.2160   -10.0190    13.0250 o          1 A1A      -0.523000
     18 C23         10.3800   -10.0830    11.5180 c6         1 A1A      -0.305400
     19 C25         11.3430    -7.8800    12.2520 c6         1 A1A      -0.049100
     20 C19         11.7140    -7.3670    14.6730 ca         1 A1A      -0.131000
     21 C18         11.6010    -7.6350    16.0250 ca         1 A1A      -0.031000
     22 C3          10.8210    -9.0690    17.9600 c3         1 A1A       0.289800
     23 C1          11.7430   -10.2280    18.3770 c3         1 A1A      -0.071700
     24 C2          13.1820    -9.9570    17.9520 c3         1 A1A      -0.088100
     25 C           11.6770   -10.4650    19.8830 c3         1 A1A      -0.088100
     26 N            9.4590    -9.3740    18.3400 nu         1 A1A      -0.920100
     27 C16          7.1410    -8.8170    18.6640 ca         1 A1A      -0.260800
     28 N2           6.5370    -6.4590    18.5780 nb         1 A1A      -0.229000
     29 C14          2.8540    -9.9780    20.0130 cd         1 A1A      -0.113000
     30 N5           1.7850   -10.7950    20.2690 na         1 A1A       0.057200
     31 N4          -0.1530   -11.5950    20.9340 nd         1 A1A      -0.543300
     32 C12          0.5380   -12.5990    20.3410 cc         1 A1A      -0.072400
     33 C11          1.7640   -12.1370    19.9100 cd         1 A1A      -0.160000
     34 C9           3.9560   -11.8610    18.9860 cc         1 A1A      -0.108000
     35 H1           4.1670    -7.7200    19.0360 hn         1 A1A       0.361000
     36 H10          8.1260    -5.2330    18.1890 h5         1 A1A       0.044100
     37 H12          2.8980   -13.7070    18.9560 ha         1 A1A       0.134000
     38 H14          0.3650    -9.5460    21.2650 h5         1 A1A       0.069800
     39 H16          6.7810   -11.0230    18.9080 ha         1 A1A       0.204000
     40 H19          9.8160   -10.4890    15.8670 ha         1 A1A       0.126000
     41 H23         10.7140    -8.3890    10.2660 hc         1 A1A       0.066700
     42 H22          9.3820    -8.1800    11.3790 hc         1 A1A       0.066700
     43 H20         11.3870   -10.5030    11.5380 h1         1 A1A       0.106200
     44 H21          9.7880   -10.6200    10.7740 h1         1 A1A       0.106200
     45 H24         12.3720    -8.1450    11.9880 hc         1 A1A       0.064200
     46 H25         11.2670    -6.8000    12.1170 hc         1 A1A       0.064200
     47 H18         12.2500    -6.4830    14.3480 ha         1 A1A       0.116000
     48 H17         12.0500    -6.9570    16.7410 ha         1 A1A       0.122000
     49 H           11.1370    -8.1790    18.5130 h1         1 A1A       0.084700
     50 H5          11.3990   -11.1340    17.8610 hc         1 A1A       0.050700
     51 H7          13.2930    -9.9000    16.8700 hc         1 A1A       0.038867
     52 H6          13.5450    -9.0190    18.3780 hc         1 A1A       0.038867
     53 H8          13.8350   -10.7550    18.3080 hc         1 A1A       0.038867
     54 H3          10.6760   -10.7230    20.2270 hc         1 A1A       0.038867
     55 H4          12.3410   -11.2810    20.1680 hc         1 A1A       0.038867
     56 H2          11.9980    -9.5730    20.4270 hc         1 A1A       0.038867
     57 H9           9.1900   -10.3450    18.3790 hn         1 A1A       0.496000
     58 H15          2.7600    -8.9600    20.3670 h4         1 A1A       0.141000
     59 H13          0.1410   -13.5980    20.2450 h4         1 A1A       0.232000
     60 H11          4.8170   -12.2550    18.4640 ha         1 A1A       0.128000
     61 O1           9.9020   -11.8060    13.4970 o          1 A1A      -0.523000
@<TRIPOS>BOND
     1     1     3 ar  
     2     1     4 ar  
     3     2     5 1   
     4     2     6 1   
     5     2    35 1   
     6     3    26 1   
     7     3    27 ar  
     8     4    28 ar  
     9     4    36 1   
    10     5    27 ar  
    11     5    28 ar  
    12     6     7 1   
    13     6    10 2   
    14     7    29 2   
    15     7    34 1   
    16     8    33 1   
    17     8    34 2   
    18     8    37 1   
    19     9    30 1   
    20     9    31 2   
    21     9    38 1   
    22    10    27 1   
    23    10    39 1   
    24    11    14 ar  
    25    11    21 ar  
    26    11    22 1   
    27    12    13 ar  
    28    12    19 1   
    29    12    20 ar  
    30    13    14 ar  
    31    13    16 1   
    32    14    40 1   
    33    15    18 1   
    34    15    19 1   
    35    15    41 1   
    36    15    42 1   
    37    16    17 2   
    38    16    18 1   
    39    16    61 2   
    40    18    43 1   
    41    18    44 1   
    42    19    45 1   
    43    19    46 1   
    44    20    21 ar  
    45    20    47 1   
    46    21    48 1   
    47    22    23 1   
    48    22    26 1   
    49    22    49 1   
    50    23    24 1   
    51    23    25 1   
    52    23    50 1   
    53    24    51 1   
    54    24    52 1   
    55    24    53 1   
    56    25    54 1   
    57    25    55 1   
    58    25    56 1   
    59    26    57 1   
    60    29    30 1   
    61    29    58 1   
    62    30    33 1   
    63    31    32 1   
    64    32    33 2   
    65    32    59 1   
    66    34    60 1   
@<TRIPOS>SUBSTRUCTURE
     1 A1A         1 TEMP              0 ****  ****    0 ROOT
