@<TRIPOS>MOLECULE
A1A
   47    50     1     0     0
SMALL
abcg2


@<TRIPOS>ATOM
      1 N1           8.5630    -7.7280    14.9540 nb         1 A1A      -0.308000
      2 N3           4.7760    -9.0230    14.8730 na         1 A1A      -0.315400
      3 C4           8.2260    -8.7870    14.2190 ca         1 A1A       0.432900
      4 C5           7.6140    -7.1150    15.6640 ca         1 A1A       0.174900
      5 C6           6.0080    -8.4750    14.9990 ca         1 A1A       0.143500
      6 C7           4.8430   -10.0970    14.0220 cc         1 A1A      -0.179100
      7 C8           6.1260   -10.2590    13.5880 cd         1 A1A      -0.200200
      8 C10         10.5760    -7.7030    12.5040 ca         1 A1A       0.325300
      9 C13         10.6500    -5.5490    10.7680 ca         1 A1A      -0.050300
     10 C15          9.7670    -5.7650     7.9100 c6         1 A1A      -0.313400
     11 C17         10.7130    -4.4020     9.7980 c6         1 A1A      -0.041100
     12 S            9.2290    -7.1130     8.9440 sy         1 A1A       0.988100
     13 O            7.7950    -6.9700     9.1920 o          1 A1A      -0.506000
     14 C16          9.6790    -4.4590     8.6840 c6         1 A1A      -0.056400
     15 C12         11.2210    -5.4470    12.0380 ca         1 A1A      -0.092000
     16 C11         11.1830    -6.5160    12.9090 ca         1 A1A      -0.084000
     17 C14         10.0720    -6.7790    10.4900 ca         1 A1A       0.186900
     18 N4          10.0250    -7.8130    11.3070 nb         1 A1A      -0.602000
     19 C3          10.5350    -8.9270    13.3920 c3         1 A1A       0.201200
     20 C1          11.4510   -10.0410    12.8590 c3         1 A1A      -0.071700
     21 C2          11.4730   -11.2300    13.8150 c3         1 A1A      -0.087600
     22 C           12.8680    -9.5220    12.6350 c3         1 A1A      -0.087600
     23 N            9.1840    -9.4250    13.5220 nu         1 A1A      -0.908100
     24 C9           6.8860    -9.2230    14.2070 ca         1 A1A      -0.250800
     25 N2           6.3350    -7.4130    15.7430 nb         1 A1A      -0.228000
     26 H1           3.9420    -8.6900    15.3290 hn         1 A1A       0.360000
     27 H10          7.9460    -6.2600    16.2450 h5         1 A1A       0.039100
     28 H11          3.9580   -10.6680    13.7920 h4         1 A1A       0.216000
     29 H12          6.4730   -11.0230    12.9100 ha         1 A1A       0.205000
     30 H15         10.7890    -5.9800     7.5910 h1         1 A1A       0.107200
     31 H16          9.1150    -5.7830     7.0340 h1         1 A1A       0.107200
     32 H19         11.7140    -4.3860     9.3550 hc         1 A1A       0.064700
     33 H20         10.6120    -3.4670    10.3500 hc         1 A1A       0.064700
     34 H18          9.8510    -3.6350     7.9900 hc         1 A1A       0.066700
     35 H17          8.6710    -4.3220     9.0810 hc         1 A1A       0.066700
     36 H14         11.6880    -4.5160    12.3390 ha         1 A1A       0.121000
     37 H13         11.6190    -6.4420    13.8960 ha         1 A1A       0.134000
     38 H           10.8950    -8.6420    14.3840 h1         1 A1A       0.083700
     39 H5          11.0500   -10.3700    11.8920 hc         1 A1A       0.067700
     40 H8          10.4860   -11.6660    13.9650 hc         1 A1A       0.037367
     41 H7          12.1230   -12.0150    13.4270 hc         1 A1A       0.037367
     42 H6          11.8610   -10.9310    14.7910 hc         1 A1A       0.037367
     43 H3          12.9190    -8.7630    11.8550 hc         1 A1A       0.037367
     44 H2          13.2770    -9.0900    13.5510 hc         1 A1A       0.037367
     45 H4          13.5240   -10.3390    12.3330 hc         1 A1A       0.037367
     46 H9           8.8860   -10.1260    12.8610 hn         1 A1A       0.504000
     47 O1           9.7130    -8.3840     8.4180 o          1 A1A      -0.506000
@<TRIPOS>BOND
     1     1     3 ar  
     2     1     4 ar  
     3     2     5 1   
     4     2     6 1   
     5     2    26 1   
     6     3    23 1   
     7     3    24 ar  
     8     4    25 ar  
     9     4    27 1   
    10     5    24 ar  
    11     5    25 ar  
    12     6     7 2   
    13     6    28 1   
    14     7    24 1   
    15     7    29 1   
    16     8    16 ar  
    17     8    18 ar  
    18     8    19 1   
    19     9    11 1   
    20     9    15 ar  
    21     9    17 ar  
    22    10    12 1   
    23    10    14 1   
    24    10    30 1   
    25    10    31 1   
    26    11    14 1   
    27    11    32 1   
    28    11    33 1   
    29    12    13 2   
    30    12    17 1   
    31    12    47 2   
    32    14    34 1   
    33    14    35 1   
    34    15    16 ar  
    35    15    36 1   
    36    16    37 1   
    37    17    18 ar  
    38    19    20 1   
    39    19    23 1   
    40    19    38 1   
    41    20    21 1   
    42    20    22 1   
    43    20    39 1   
    44    21    40 1   
    45    21    41 1   
    46    21    42 1   
    47    22    43 1   
    48    22    44 1   
    49    22    45 1   
    50    23    46 1   
@<TRIPOS>SUBSTRUCTURE
     1 A1A         1 TEMP              0 ****  ****    0 ROOT
