@<TRIPOS>MOLECULE
A1A
   61    65     1     0     0
SMALL
abcg2


@<TRIPOS>ATOM
      1 N1           8.5020    -7.9330    14.8680 nb         1 A1A      -0.303000
      2 N3           4.7660    -9.3610    14.8570 na         1 A1A      -0.318400
      3 C4           8.1770    -8.9610    14.0810 ca         1 A1A       0.438900
      4 C5           7.5590    -7.3900    15.6370 ca         1 A1A       0.179900
      5 C6           5.9810    -8.7700    14.9560 ca         1 A1A       0.152500
      6 C7           4.8250   -10.3920    13.9440 cc         1 A1A      -0.010100
      7 C8           3.6690   -11.2200    13.6340 cc         1 A1A      -0.137000
      8 C10          2.5310   -12.7360    12.1350 cd         1 A1A      -0.314200
      9 C13          2.6060   -11.3370    14.4820 cd         1 A1A      -0.026400
     10 C15          6.8490    -9.4370    14.0870 ca         1 A1A      -0.253800
     11 C17         11.1040    -6.6290    12.9740 ca         1 A1A      -0.028000
     12 C20         10.4890    -6.7010    10.3030 ca         1 A1A      -0.246500
     13 C21         10.3340    -7.8470    11.0770 ca         1 A1A      -0.006000
     14 C22         10.7000    -5.3890     7.8540 c6         1 A1A      -0.306400
     15 C24         11.1480    -4.2380    10.0360 c6         1 A1A      -0.050100
     16 S           10.0100    -6.8520     8.5990 sy         1 A1A       1.051500
     17 O1          10.6470    -8.0370     8.0290 o          1 A1A      -0.523000
     18 C23         10.3900    -4.1780     8.7170 c6         1 A1A      -0.055400
     19 C19         10.9390    -5.4950    10.8380 ca         1 A1A       0.013700
     20 C18         11.2470    -5.4940    12.1970 ca         1 A1A      -0.132000
     21 C16         10.6460    -7.8240    12.4270 ca         1 A1A      -0.109300
     22 C3          10.5040    -9.0640    13.2840 c3         1 A1A       0.289800
     23 C1          11.4310   -10.2070    12.8420 c3         1 A1A      -0.071700
     24 C2          12.8760    -9.7250    12.7680 c3         1 A1A      -0.088100
     25 C           11.3180   -11.3950    13.7940 c3         1 A1A      -0.088100
     26 N            9.1310    -9.5240    13.3220 nu         1 A1A      -0.922100
     27 N2           6.2930    -7.7380    15.7420 nb         1 A1A      -0.231000
     28 C14          6.1020   -10.4670    13.4480 cd         1 A1A      -0.192200
     29 N4           1.5260   -12.1010    14.1980 n          1 A1A      -0.266000
     30 C12          0.4250   -12.1750    15.1490 c3         1 A1A       0.074300
     31 C11          1.4060   -12.8410    13.0270 c          1 A1A       0.548200
     32 O            0.4000   -13.5100    12.8190 o          1 A1A      -0.550000
     33 C9           3.6040   -11.9620    12.4230 cc         1 A1A      -0.074000
     34 H1           3.9390    -9.0330    15.3310 hn         1 A1A       0.357000
     35 H10          7.8820    -6.5550    16.2510 h5         1 A1A       0.042100
     36 H12          2.4800   -13.2940    11.2110 ha         1 A1A       0.212000
     37 H16          2.5710   -10.8370    15.4400 h4         1 A1A       0.195000
     38 H18         11.3490    -6.5870    14.0280 ha         1 A1A       0.125000
     39 H20          9.9770    -8.7650    10.6230 ha         1 A1A       0.126000
     40 H21         11.7740    -5.5490     7.7480 h1         1 A1A       0.106700
     41 H22         10.2530    -5.3290     6.8590 h1         1 A1A       0.106700
     42 H25         12.2190    -4.1370     9.8320 hc         1 A1A       0.063700
     43 H26         10.8780    -3.3790    10.6520 hc         1 A1A       0.063700
     44 H24         10.6830    -3.2810     8.1720 hc         1 A1A       0.065700
     45 H23          9.3150    -4.1010     8.8880 hc         1 A1A       0.065700
     46 H19         11.6000    -4.5760    12.6530 ha         1 A1A       0.116000
     47 H           10.7880    -8.7940    14.3060 h1         1 A1A       0.083700
     48 H5          11.1260   -10.5350    11.8400 hc         1 A1A       0.050700
     49 H8          13.0190    -8.9540    12.0110 hc         1 A1A       0.039033
     50 H6          13.1970    -9.3140    13.7280 hc         1 A1A       0.039033
     51 H7          13.5410   -10.5530    12.5220 hc         1 A1A       0.039033
     52 H4          10.3120   -11.8120    13.8250 hc         1 A1A       0.039033
     53 H3          11.9940   -12.1930    13.4890 hc         1 A1A       0.039033
     54 H2          11.5890   -11.1000    14.8100 hc         1 A1A       0.039033
     55 H9           8.8540   -10.2410    12.6700 hn         1 A1A       0.498000
     56 H17          6.4620   -11.1920    12.7350 ha         1 A1A       0.202000
     57 H14          0.6630   -11.5640    16.0140 h1         1 A1A       0.056700
     58 H13         -0.4940   -11.8060    14.6980 h1         1 A1A       0.056700
     59 H15          0.2690   -13.2010    15.4740 h1         1 A1A       0.056700
     60 H11          4.4200   -11.8970    11.7140 ha         1 A1A       0.193000
     61 O2           8.5510    -6.7690     8.5370 o          1 A1A      -0.523000
@<TRIPOS>BOND
     1     1     3 ar  
     2     1     4 ar  
     3     2     5 1   
     4     2     6 1   
     5     2    34 1   
     6     3    10 ar  
     7     3    26 1   
     8     4    27 ar  
     9     4    35 1   
    10     5    10 ar  
    11     5    27 ar  
    12     6     7 1   
    13     6    28 2   
    14     7     9 2   
    15     7    33 1   
    16     8    31 1   
    17     8    33 2   
    18     8    36 1   
    19     9    29 1   
    20     9    37 1   
    21    10    28 1   
    22    11    20 ar  
    23    11    21 ar  
    24    11    38 1   
    25    12    13 ar  
    26    12    16 1   
    27    12    19 ar  
    28    13    21 ar  
    29    13    39 1   
    30    14    16 1   
    31    14    18 1   
    32    14    40 1   
    33    14    41 1   
    34    15    18 1   
    35    15    19 1   
    36    15    42 1   
    37    15    43 1   
    38    16    17 2   
    39    16    61 2   
    40    18    44 1   
    41    18    45 1   
    42    19    20 ar  
    43    20    46 1   
    44    21    22 1   
    45    22    23 1   
    46    22    26 1   
    47    22    47 1   
    48    23    24 1   
    49    23    25 1   
    50    23    48 1   
    51    24    49 1   
    52    24    50 1   
    53    24    51 1   
    54    25    52 1   
    55    25    53 1   
    56    25    54 1   
    57    26    55 1   
    58    28    56 1   
    59    29    30 1   
    60    29    31 1   
    61    30    57 1   
    62    30    58 1   
    63    30    59 1   
    64    31    32 2   
    65    33    60 1   
@<TRIPOS>SUBSTRUCTURE
     1 A1A         1 TEMP              0 ****  ****    0 ROOT
