@<TRIPOS>MOLECULE
A1A
   57    61     1     0     0
SMALL
No Charge or Current Charge


@<TRIPOS>ATOM
      1 N1           8.5650    -7.7200    15.1270 nb         1 A1A      -0.304000
      2 N3           4.7130    -9.1210    14.7330 na         1 A1A      -0.311400
      3 C4           8.2390    -8.8280    14.4330 ca         1 A1A       0.441900
      4 C5           7.5410    -7.0530    15.7130 ca         1 A1A       0.183900
      5 C6           5.9260    -8.4960    14.9800 ca         1 A1A       0.156500
      6 C7           4.8760   -10.2740    13.9390 cc         1 A1A      -0.026100
      7 C8           3.8100   -11.1650    13.5100 ce         1 A1A      -0.101200
      8 C10          2.3620   -12.3720    12.2140 c5         1 A1A       0.186800
      9 C13          6.9010    -9.2290    14.3560 ca         1 A1A      -0.261800
     10 C15         11.1780    -6.7020    13.0480 ca         1 A1A      -0.028000
     11 C17         10.7010    -5.7180    10.8580 ca         1 A1A       0.012700
     12 C20         10.0390    -5.7390     7.8670 c6         1 A1A      -0.306400
     13 C21          9.8540    -4.4680     8.7220 c6         1 A1A      -0.055400
     14 C22         10.7960    -4.4800     9.9480 c6         1 A1A      -0.050100
     15 S            9.5010    -7.1990     8.7790 sy         1 A1A       1.050500
     16 O1          10.1460    -8.3770     8.1840 o          1 A1A      -0.523000
     17 C16         11.2020    -5.6070    12.1690 ca         1 A1A      -0.132000
     18 C18         10.1760    -6.9640    10.4330 ca         1 A1A      -0.246500
     19 C19         10.1540    -8.0610    11.3180 ca         1 A1A      -0.004000
     20 C14         10.6560    -7.9390    12.6290 ca         1 A1A      -0.108300
     21 C3          10.6380    -9.1280    13.5930 c3         1 A1A       0.290800
     22 C1          11.5000   -10.3310    13.0950 c3         1 A1A      -0.071700
     23 C2          12.9390    -9.8990    12.7130 c3         1 A1A      -0.088600
     24 C           11.5530   -11.4850    14.1300 c3         1 A1A      -0.088600
     25 N            9.2460    -9.5490    13.8110 nu         1 A1A      -0.923100
     26 N2           6.2260    -7.3840    15.6760 nb         1 A1A      -0.231000
     27 C12          6.2370   -10.3360    13.7100 cd         1 A1A      -0.177200
     28 C11          2.8210   -11.7900    14.4590 c5         1 A1A       0.191800
     29 O            1.7760   -12.2060    13.5400 os         1 A1A      -0.456000
     30 C9           3.5670   -11.4530    12.2290 c2         1 A1A      -0.232200
     31 H1           3.8250    -8.7790    15.0770 hn         1 A1A       0.363000
     32 H10          7.8010    -6.1560    16.2730 h5         1 A1A       0.043100
     33 H13          1.6230   -12.1020    11.4470 h1         1 A1A       0.056700
     34 H12          2.6530   -13.4220    12.0750 h1         1 A1A       0.056700
     35 H17         11.5690    -6.5860    14.0570 ha         1 A1A       0.125000
     36 H20         11.0940    -5.9040     7.6160 h1         1 A1A       0.106700
     37 H21          9.4380    -5.7140     6.9500 h1         1 A1A       0.106700
     38 H23         10.0660    -3.5780     8.1120 hc         1 A1A       0.065700
     39 H22          8.8090    -4.3730     9.0500 hc         1 A1A       0.065700
     40 H24         11.8340    -4.3840     9.6010 hc         1 A1A       0.063700
     41 H25         10.6010    -3.5770    10.5440 hc         1 A1A       0.063700
     42 H18         11.6180    -4.6630    12.5120 ha         1 A1A       0.116000
     43 H19          9.7400    -9.0120    10.9900 ha         1 A1A       0.126000
     44 H           11.0660    -8.8020    14.5530 h1         1 A1A       0.082700
     45 H5          11.0350   -10.7310    12.1860 hc         1 A1A       0.050700
     46 H7          12.9320    -9.1740    11.8900 hc         1 A1A       0.039033
     47 H6          13.4490    -9.4420    13.5700 hc         1 A1A       0.039033
     48 H8          13.5290   -10.7630    12.3850 hc         1 A1A       0.039033
     49 H3          10.5520   -11.8800    14.3410 hc         1 A1A       0.039033
     50 H4          12.1620   -12.3160    13.7530 hc         1 A1A       0.039033
     51 H2          11.9910   -11.1420    15.0750 hc         1 A1A       0.039033
     52 H9           8.9350   -10.3890    13.3320 hn         1 A1A       0.499000
     53 H16          6.7180   -11.1180    13.1280 ha         1 A1A       0.202000
     54 H15          2.4150   -11.0880    15.2000 h1         1 A1A       0.051200
     55 H14          3.2370   -12.6690    14.9690 h1         1 A1A       0.051200
     56 H11          4.1290   -11.0930    11.3660 ha         1 A1A       0.204000
     57 O2           8.0370    -7.1400     8.8880 o          1 A1A      -0.523000
@<TRIPOS>BOND
     1     1     3 ar  
     2     1     4 ar  
     3     2     5 1   
     4     2     6 1   
     5     2    31 1   
     6     3     9 ar  
     7     3    25 1   
     8     4    26 ar  
     9     4    32 1   
    10     5     9 ar  
    11     5    26 ar  
    12     6     7 1   
    13     6    27 2   
    14     7    28 1   
    15     7    30 2   
    16     8    29 1   
    17     8    30 1   
    18     8    33 1   
    19     8    34 1   
    20     9    27 1   
    21    10    17 ar  
    22    10    20 ar  
    23    10    35 1   
    24    11    14 1   
    25    11    17 ar  
    26    11    18 ar  
    27    12    13 1   
    28    12    15 1   
    29    12    36 1   
    30    12    37 1   
    31    13    14 1   
    32    13    38 1   
    33    13    39 1   
    34    14    40 1   
    35    14    41 1   
    36    15    16 2   
    37    15    18 1   
    38    15    57 2   
    39    17    42 1   
    40    18    19 ar  
    41    19    20 ar  
    42    19    43 1   
    43    20    21 1   
    44    21    22 1   
    45    21    25 1   
    46    21    44 1   
    47    22    23 1   
    48    22    24 1   
    49    22    45 1   
    50    23    46 1   
    51    23    47 1   
    52    23    48 1   
    53    24    49 1   
    54    24    50 1   
    55    24    51 1   
    56    25    52 1   
    57    27    53 1   
    58    28    29 1   
    59    28    54 1   
    60    28    55 1   
    61    30    56 1   
@<TRIPOS>SUBSTRUCTURE
     1 A1A         1 TEMP              0 ****  ****    0 ROOT
