@<TRIPOS>MOLECULE
A1A
   57    61     1     0     0
SMALL
abcg2


@<TRIPOS>ATOM
      1 N1           8.4250    -7.9370    14.8850 nb         1 A1A      -0.304000
      2 N3           4.7360    -9.4820    14.9780 na         1 A1A      -0.311400
      3 C4           8.1110    -8.9760    14.1110 ca         1 A1A       0.441900
      4 C5           7.4850    -7.4200    15.6770 ca         1 A1A       0.183900
      5 C6           5.9290    -8.8490    15.0400 ca         1 A1A       0.156500
      6 C7           4.8080   -10.5200    14.0710 cc         1 A1A      -0.026100
      7 C8           3.6750   -11.3790    13.8080 ce         1 A1A      -0.101200
      8 C10          2.2340   -12.9800    12.9610 c5         1 A1A       0.186800
      9 C13          6.7980    -9.4920    14.1520 ca         1 A1A      -0.261800
     10 C15         11.0630    -6.6420    12.9570 ca         1 A1A      -0.028000
     11 C17         10.8970    -5.5180    10.8160 ca         1 A1A       0.012700
     12 C20         10.6190    -5.4170     7.8350 c6         1 A1A      -0.306400
     13 C21         10.3400    -4.2000     8.6990 c6         1 A1A      -0.055400
     14 C22         11.1190    -4.2680    10.0040 c6         1 A1A      -0.050100
     15 S            9.9210    -6.8690     8.5940 sy         1 A1A       1.050500
     16 O1          10.5380    -8.0630     8.0200 o          1 A1A      -0.523000
     17 C16         11.2180    -5.5130    12.1720 ca         1 A1A      -0.132000
     18 C18         10.4200    -6.7190    10.2920 ca         1 A1A      -0.246500
     19 C19         10.2550    -7.8580    11.0740 ca         1 A1A      -0.004000
     20 C14         10.5810    -7.8320    12.4210 ca         1 A1A      -0.108300
     21 C3          10.4320    -9.0640    13.2880 c3         1 A1A       0.290800
     22 C1          11.3520   -10.2170    12.8530 c3         1 A1A      -0.071700
     23 C2          12.7990    -9.7450    12.7610 c3         1 A1A      -0.088600
     24 C           11.2410   -11.3910    13.8220 c3         1 A1A      -0.088600
     25 N            9.0580    -9.5190    13.3300 nu         1 A1A      -0.923100
     26 N2           6.2330    -7.8050    15.8160 nb         1 A1A      -0.231000
     27 C12          6.0760   -10.5530    13.5440 cd         1 A1A      -0.177200
     28 C11          2.4210   -11.3760    14.6390 c5         1 A1A       0.191800
     29 O            1.5900   -12.3590    14.0600 os         1 A1A      -0.456000
     30 C9           3.5530   -12.2960    12.8490 c2         1 A1A      -0.232200
     31 H1           3.9240    -9.2150    15.5140 hn         1 A1A       0.363000
     32 H10          7.7980    -6.5750    16.2810 h5         1 A1A       0.043100
     33 H13          1.6310   -12.8670    12.0510 h1         1 A1A       0.056700
     34 H12          2.3440   -14.0580    13.1370 h1         1 A1A       0.056700
     35 H17         11.3200    -6.5980    14.0080 ha         1 A1A       0.125000
     36 H20         11.6890    -5.5930     7.7130 h1         1 A1A       0.106700
     37 H21         10.1580    -5.3550     6.8470 h1         1 A1A       0.106700
     38 H23         10.6370    -3.3080     8.1460 hc         1 A1A       0.065700
     39 H22          9.2680    -4.1070     8.8870 hc         1 A1A       0.065700
     40 H24         12.1880    -4.1920     9.7810 hc         1 A1A       0.063700
     41 H25         10.8790    -3.4020    10.6220 hc         1 A1A       0.063700
     42 H18         11.5910    -4.5990    12.6190 ha         1 A1A       0.116000
     43 H19          9.8780    -8.7720    10.6300 ha         1 A1A       0.126000
     44 H           10.7190    -8.7870    14.3070 h1         1 A1A       0.082700
     45 H5          11.0360   -10.5570    11.8580 hc         1 A1A       0.050700
     46 H7          12.9410    -8.9850    11.9940 hc         1 A1A       0.039033
     47 H6          13.1310    -9.3250    13.7130 hc         1 A1A       0.039033
     48 H8          13.4550   -10.5820    12.5190 hc         1 A1A       0.039033
     49 H3          10.2320   -11.8020    13.8710 hc         1 A1A       0.039033
     50 H4          11.9080   -12.1990    13.5200 hc         1 A1A       0.039033
     51 H2          11.5250   -11.0850    14.8320 hc         1 A1A       0.039033
     52 H9           8.7850   -10.2590    12.7030 hn         1 A1A       0.499000
     53 H16          6.4350   -11.2670    12.8190 ha         1 A1A       0.202000
     54 H15          1.9210   -10.3980    14.6270 h1         1 A1A       0.051200
     55 H14          2.6330   -11.6160    15.6900 h1         1 A1A       0.051200
     56 H11          4.2830   -12.5350    12.0880 ha         1 A1A       0.204000
     57 O2           8.4620    -6.7690     8.5490 o          1 A1A      -0.523000
@<TRIPOS>BOND
     1     1     3 ar  
     2     1     4 ar  
     3     2     5 1   
     4     2     6 1   
     5     2    31 1   
     6     3     9 ar  
     7     3    25 1   
     8     4    26 ar  
     9     4    32 1   
    10     5     9 ar  
    11     5    26 ar  
    12     6     7 1   
    13     6    27 2   
    14     7    28 1   
    15     7    30 2   
    16     8    29 1   
    17     8    30 1   
    18     8    33 1   
    19     8    34 1   
    20     9    27 1   
    21    10    17 ar  
    22    10    20 ar  
    23    10    35 1   
    24    11    14 1   
    25    11    17 ar  
    26    11    18 ar  
    27    12    13 1   
    28    12    15 1   
    29    12    36 1   
    30    12    37 1   
    31    13    14 1   
    32    13    38 1   
    33    13    39 1   
    34    14    40 1   
    35    14    41 1   
    36    15    16 2   
    37    15    18 1   
    38    15    57 2   
    39    17    42 1   
    40    18    19 ar  
    41    19    20 ar  
    42    19    43 1   
    43    20    21 1   
    44    21    22 1   
    45    21    25 1   
    46    21    44 1   
    47    22    23 1   
    48    22    24 1   
    49    22    45 1   
    50    23    46 1   
    51    23    47 1   
    52    23    48 1   
    53    24    49 1   
    54    24    50 1   
    55    24    51 1   
    56    25    52 1   
    57    27    53 1   
    58    28    29 1   
    59    28    54 1   
    60    28    55 1   
    61    30    56 1   
@<TRIPOS>SUBSTRUCTURE
     1 A1A         1 TEMP              0 ****  ****    0 ROOT
