@<TRIPOS>MOLECULE
A1A
   72    76     1     0     0
SMALL
abcg2


@<TRIPOS>ATOM
      1 N1           8.2590    -8.0350    14.7850 nb         1 A1A      -0.304000
      2 N3           4.6670    -9.7970    14.7930 na         1 A1A      -0.304400
      3 C4           8.0140    -9.0620    13.9700 ca         1 A1A       0.441900
      4 C5           7.2810    -7.5960    15.5760 ca         1 A1A       0.183900
      5 C6           5.8170    -9.0900    14.8770 ca         1 A1A       0.156500
      6 C7           4.8050   -10.7910    13.8490 cc         1 A1A      -0.036300
      7 C8           3.7480   -11.7510    13.5660 ca         1 A1A       0.042200
      8 C10          2.7270   -13.3540    12.1210 ca         1 A1A       0.381900
      9 C13         -0.9910   -14.3990    16.0280 c3         1 A1A       0.160800
     10 C15         -2.7670   -12.8670    15.4740 c3         1 A1A       0.149100
     11 C17          6.0700   -10.7250    13.3210 cd         1 A1A      -0.172200
     12 C20         10.9840    -6.5840    13.0920 ca         1 A1A      -0.028000
     13 C21         11.1540    -5.4080    12.3850 ca         1 A1A      -0.131000
     14 C22         10.8700    -5.3270    11.0230 ca         1 A1A       0.012700
     15 C24         10.2330    -7.6810    11.1140 ca         1 A1A      -0.005000
     16 C26         10.3460    -3.8800     8.9870 c6         1 A1A      -0.054400
     17 S            9.9660    -6.5430     8.6920 sy         1 A1A       1.050500
     18 O1          10.6160    -7.6890     8.0610 o          1 A1A      -0.523000
     19 C25         10.6580    -5.0330     8.0480 c6         1 A1A      -0.306400
     20 C27         11.1020    -4.0270    10.2980 c6         1 A1A      -0.050100
     21 C23         10.4160    -6.4950    10.4100 ca         1 A1A      -0.246500
     22 C19         10.5220    -7.7390    12.4680 ca         1 A1A      -0.105300
     23 C3          10.3650    -9.0290    13.2430 c3         1 A1A       0.291800
     24 C1          11.3370   -10.1230    12.7680 c3         1 A1A      -0.073700
     25 C2          11.2130   -11.3750    13.6330 c3         1 A1A      -0.088600
     26 C           12.7730    -9.6100    12.7870 c3         1 A1A      -0.088600
     27 N            9.0040    -9.5220    13.1910 nu         1 A1A      -0.923100
     28 C18          6.7270    -9.6470    13.9720 ca         1 A1A      -0.263800
     29 N2           6.0510    -8.0540    15.6860 nb         1 A1A      -0.230000
     30 C16          2.7500   -12.0350    14.4850 ca         1 A1A      -0.191000
     31 C11          1.7820   -12.9880    14.1480 ca         1 A1A       0.594300
     32 N4           1.7620   -13.6330    13.0010 nb         1 A1A      -0.761000
     33 C9           3.7280   -12.4380    12.3420 ca         1 A1A      -0.196000
     34 O            0.8480   -13.2380    15.0660 os         1 A1A      -0.448300
     35 C12         -0.1300   -14.2380    14.7940 c3         1 A1A       0.175600
     36 N5          -1.7170   -13.2040    16.4110 n3         1 A1A      -0.703600
     37 C14         -2.2480   -13.3300    17.7510 c3         1 A1A       0.149100
     38 H1           3.8220    -9.5680    15.2940 hn         1 A1A       0.367000
     39 H10          7.5390    -6.7540    16.2100 h5         1 A1A       0.042100
     40 H12          2.6850   -13.8960    11.1830 h4         1 A1A       0.019100
     41 H16         -1.6650   -15.2530    15.8430 h1         1 A1A       0.041700
     42 H15         -0.3480   -14.6940    16.8620 h1         1 A1A       0.041700
     43 H20         -3.2680   -11.9540    15.7970 h1         1 A1A       0.030867
     44 H21         -2.3640   -12.6770    14.4790 h1         1 A1A       0.030867
     45 H22         -3.5320   -13.6540    15.3800 h1         1 A1A       0.030867
     46 H24          6.4810   -11.3960    12.5830 ha         1 A1A       0.203000
     47 H25         11.2120    -6.6080    14.1510 ha         1 A1A       0.124000
     48 H26         11.5080    -4.5220    12.8990 ha         1 A1A       0.116000
     49 H27          9.8720    -8.5660    10.6020 ha         1 A1A       0.126000
     50 H31         10.6390    -2.9500     8.5010 hc         1 A1A       0.065700
     51 H30          9.2700    -3.8150     9.1620 hc         1 A1A       0.065700
     52 H28         11.7330    -5.1840     7.9370 h1         1 A1A       0.106700
     53 H29         10.2160    -4.9090     7.0570 h1         1 A1A       0.106700
     54 H32         12.1750    -3.9300    10.1010 hc         1 A1A       0.063700
     55 H33         10.8450    -3.2030    10.9660 hc         1 A1A       0.063700
     56 H           10.6000    -8.8180    14.2910 h1         1 A1A       0.081700
     57 H5          11.0790   -10.3860    11.7350 hc         1 A1A       0.051700
     58 H8          10.2140   -11.8100    13.6010 hc         1 A1A       0.038867
     59 H7          11.9140   -12.1390    13.2970 hc         1 A1A       0.038867
     60 H6          11.4440   -11.1480    14.6760 hc         1 A1A       0.038867
     61 H3          12.9290    -8.7870    12.0900 hc         1 A1A       0.038867
     62 H2          13.0470    -9.2600    13.7860 hc         1 A1A       0.038867
     63 H4          13.4630   -10.4080    12.5140 hc         1 A1A       0.038867
     64 H9           8.7860   -10.2480    12.5270 hn         1 A1A       0.500000
     65 H23          2.7150   -11.5670    15.4600 ha         1 A1A       0.136000
     66 H11          4.4680   -12.2480    11.5770 ha         1 A1A       0.130000
     67 H14         -0.7180   -13.9650    13.9150 h1         1 A1A       0.049200
     68 H13          0.3500   -15.1950    14.5730 h1         1 A1A       0.049200
     69 H19         -2.7390   -12.4010    18.0460 h1         1 A1A       0.030867
     70 H17         -2.9850   -14.1420    17.8570 h1         1 A1A       0.030867
     71 H18         -1.4410   -13.5190    18.4600 h1         1 A1A       0.030867
     72 O2           8.5070    -6.4620     8.6130 o          1 A1A      -0.523000
@<TRIPOS>BOND
     1     1     3 ar  
     2     1     4 ar  
     3     2     5 1   
     4     2     6 1   
     5     2    38 1   
     6     3    27 1   
     7     3    28 ar  
     8     4    29 ar  
     9     4    39 1   
    10     5    28 ar  
    11     5    29 ar  
    12     6     7 1   
    13     6    11 2   
    14     7    30 ar  
    15     7    33 ar  
    16     8    32 ar  
    17     8    33 ar  
    18     8    40 1   
    19     9    35 1   
    20     9    36 1   
    21     9    41 1   
    22     9    42 1   
    23    10    36 1   
    24    10    43 1   
    25    10    44 1   
    26    10    45 1   
    27    11    28 1   
    28    11    46 1   
    29    12    13 ar  
    30    12    22 ar  
    31    12    47 1   
    32    13    14 ar  
    33    13    48 1   
    34    14    20 1   
    35    14    21 ar  
    36    15    21 ar  
    37    15    22 ar  
    38    15    49 1   
    39    16    19 1   
    40    16    20 1   
    41    16    50 1   
    42    16    51 1   
    43    17    18 2   
    44    17    19 1   
    45    17    21 1   
    46    17    72 2   
    47    19    52 1   
    48    19    53 1   
    49    20    54 1   
    50    20    55 1   
    51    22    23 1   
    52    23    24 1   
    53    23    27 1   
    54    23    56 1   
    55    24    25 1   
    56    24    26 1   
    57    24    57 1   
    58    25    58 1   
    59    25    59 1   
    60    25    60 1   
    61    26    61 1   
    62    26    62 1   
    63    26    63 1   
    64    27    64 1   
    65    30    31 ar  
    66    30    65 1   
    67    31    32 ar  
    68    31    34 1   
    69    33    66 1   
    70    34    35 1   
    71    35    67 1   
    72    35    68 1   
    73    36    37 1   
    74    37    69 1   
    75    37    70 1   
    76    37    71 1   
@<TRIPOS>SUBSTRUCTURE
     1 A1A         1 TEMP              0 ****  ****    0 ROOT
