@<TRIPOS>MOLECULE
A1A
   72    76     1     0     0
SMALL
No Charge or Current Charge


@<TRIPOS>ATOM
      1 N1           9.0420    -8.2530    15.3820 nb         1 A1A      -0.304000
      2 N3           5.3350   -10.0410    15.5590 na         1 A1A      -0.304400
      3 C4           8.6830    -9.3040    14.6190 ca         1 A1A       0.441900
      4 C5           8.1040    -7.7850    16.2410 ca         1 A1A       0.183900
      5 C6           6.5120    -9.3130    15.6450 ca         1 A1A       0.156500
      6 C7           5.4490   -11.0620    14.5970 cc         1 A1A      -0.036300
      7 C8           4.4510   -12.0610    14.1890 ca         1 A1A       0.042200
      8 C10          3.6980   -13.9360    12.8450 ca         1 A1A       0.381900
      9 C13         -1.2690   -13.7190    15.5630 c3         1 A1A       0.160800
     10 C15         -2.3460   -12.0050    14.1080 c3         1 A1A       0.149100
     11 C17          6.7320   -10.9500    14.0880 cd         1 A1A      -0.172200
     12 C20         11.0740    -6.6980    13.0100 ca         1 A1A      -0.028000
     13 C21         10.8190    -5.5110    12.3050 ca         1 A1A      -0.131000
     14 C22         10.0730    -5.5220    11.1110 ca         1 A1A       0.012700
     15 C24          9.8450    -7.9510    11.3350 ca         1 A1A      -0.005000
     16 C26          8.6980    -4.1340     9.3720 c6         1 A1A      -0.054400
     17 S            8.6110    -6.8750     9.1130 sy         1 A1A       1.050500
     18 O1           9.2240    -7.8910     8.2470 o          1 A1A      -0.523000
     19 C25          8.8170    -5.2640     8.3290 c6         1 A1A      -0.306400
     20 C27          9.8670    -4.1830    10.3820 c6         1 A1A      -0.050100
     21 C23          9.5860    -6.7610    10.6240 ca         1 A1A      -0.246500
     22 C19         10.5910    -7.9280    12.5300 ca         1 A1A      -0.105300
     23 C3          10.8770    -9.2180    13.3040 c3         1 A1A       0.291800
     24 C1          11.7250   -10.2440    12.4880 c3         1 A1A      -0.073700
     25 C2          12.0930   -11.5000    13.3220 c3         1 A1A      -0.088600
     26 C           13.0110    -9.6050    11.9040 c3         1 A1A      -0.088600
     27 N            9.6030    -9.8220    13.7210 nu         1 A1A      -0.923100
     28 C18          7.4020    -9.8500    14.7460 ca         1 A1A      -0.263800
     29 N2           6.8480    -8.2620    16.4150 nb         1 A1A      -0.230000
     30 C16          3.1880   -12.1010    14.8040 ca         1 A1A      -0.191000
     31 C11          2.2420   -13.0570    14.4080 ca         1 A1A       0.594300
     32 N4           2.4880   -13.9670    13.4420 nb         1 A1A      -0.761000
     33 C9           4.6970   -13.0120    13.1820 ca         1 A1A      -0.196000
     34 O            1.0260   -13.0500    15.0460 os         1 A1A      -0.448300
     35 C12         -0.0170   -13.9790    14.6790 c3         1 A1A       0.175600
     36 N5          -1.8850   -12.3600    15.4710 n3         1 A1A      -0.703600
     37 C14         -2.9430   -12.1560    16.4850 c3         1 A1A       0.149100
     38 H1           4.5120    -9.8520    16.1180 hn         1 A1A       0.367000
     39 H10          8.3910    -6.9350    16.8580 h5         1 A1A       0.042100
     40 H12          3.8730   -14.6790    12.0670 h4         1 A1A       0.019100
     41 H16         -2.0220   -14.4770    15.3060 h1         1 A1A       0.041700
     42 H15         -0.9760   -13.9140    16.6030 h1         1 A1A       0.041700
     43 H20         -2.7760   -10.9940    14.0960 h1         1 A1A       0.030867
     44 H21         -1.5140   -12.0160    13.3930 h1         1 A1A       0.030867
     45 H22         -3.1140   -12.7080    13.7590 h1         1 A1A       0.030867
     46 H24          7.1650   -11.5850    13.3220 ha         1 A1A       0.203000
     47 H25         11.6510    -6.6580    13.9320 ha         1 A1A       0.124000
     48 H26         11.2100    -4.5720    12.6900 ha         1 A1A       0.116000
     49 H27          9.4590    -8.8980    10.9620 ha         1 A1A       0.126000
     50 H31          8.6990    -3.1590     8.8630 hc         1 A1A       0.065700
     51 H30          7.7370    -4.2000     9.9040 hc         1 A1A       0.065700
     52 H28          9.8090    -5.2750     7.8600 h1         1 A1A       0.106700
     53 H29          8.0410    -5.1990     7.5560 h1         1 A1A       0.106700
     54 H32         10.7990    -3.9260     9.8590 hc         1 A1A       0.063700
     55 H33          9.7180    -3.3860    11.1240 hc         1 A1A       0.063700
     56 H           11.4610    -8.9610    14.2010 h1         1 A1A       0.081700
     57 H5          11.1230   -10.5840    11.6360 hc         1 A1A       0.051700
     58 H8          11.1960   -12.0310    13.6610 hc         1 A1A       0.038867
     59 H7          12.6850   -12.2030    12.7240 hc         1 A1A       0.038867
     60 H6          12.6810   -11.2220    14.2050 hc         1 A1A       0.038867
     61 H3          12.7720    -8.7930    11.2070 hc         1 A1A       0.038867
     62 H2          13.6420    -9.1970    12.7030 hc         1 A1A       0.038867
     63 H4          13.5980   -10.3490    11.3510 hc         1 A1A       0.038867
     64 H9           9.2830   -10.6330    13.2020 hn         1 A1A       0.500000
     65 H23          2.9240   -11.4010    15.5890 ha         1 A1A       0.136000
     66 H11          5.6430   -13.0520    12.6540 ha         1 A1A       0.130000
     67 H14         -0.2840   -13.8720    13.6190 h1         1 A1A       0.049200
     68 H13          0.3160   -15.0130    14.8390 h1         1 A1A       0.049200
     69 H19         -3.3180   -11.1240    16.4530 h1         1 A1A       0.030867
     70 H17         -3.7880   -12.8350    16.3120 h1         1 A1A       0.030867
     71 H18         -2.5540   -12.3410    17.4960 h1         1 A1A       0.030867
     72 O2           7.2010    -6.9980     9.5070 o          1 A1A      -0.523000
@<TRIPOS>BOND
     1     1     3 ar  
     2     1     4 ar  
     3     2     5 1   
     4     2     6 1   
     5     2    38 1   
     6     3    27 1   
     7     3    28 ar  
     8     4    29 ar  
     9     4    39 1   
    10     5    28 ar  
    11     5    29 ar  
    12     6     7 1   
    13     6    11 2   
    14     7    30 ar  
    15     7    33 ar  
    16     8    32 ar  
    17     8    33 ar  
    18     8    40 1   
    19     9    35 1   
    20     9    36 1   
    21     9    41 1   
    22     9    42 1   
    23    10    36 1   
    24    10    43 1   
    25    10    44 1   
    26    10    45 1   
    27    11    28 1   
    28    11    46 1   
    29    12    13 ar  
    30    12    22 ar  
    31    12    47 1   
    32    13    14 ar  
    33    13    48 1   
    34    14    20 1   
    35    14    21 ar  
    36    15    21 ar  
    37    15    22 ar  
    38    15    49 1   
    39    16    19 1   
    40    16    20 1   
    41    16    50 1   
    42    16    51 1   
    43    17    18 2   
    44    17    19 1   
    45    17    21 1   
    46    17    72 2   
    47    19    52 1   
    48    19    53 1   
    49    20    54 1   
    50    20    55 1   
    51    22    23 1   
    52    23    24 1   
    53    23    27 1   
    54    23    56 1   
    55    24    25 1   
    56    24    26 1   
    57    24    57 1   
    58    25    58 1   
    59    25    59 1   
    60    25    60 1   
    61    26    61 1   
    62    26    62 1   
    63    26    63 1   
    64    27    64 1   
    65    30    31 ar  
    66    30    65 1   
    67    31    32 ar  
    68    31    34 1   
    69    33    66 1   
    70    34    35 1   
    71    35    67 1   
    72    35    68 1   
    73    36    37 1   
    74    37    69 1   
    75    37    70 1   
    76    37    71 1   
@<TRIPOS>SUBSTRUCTURE
     1 A1A         1 TEMP              0 ****  ****    0 ROOT
