@<TRIPOS>MOLECULE
A1A
   54    57     1     0     0
SMALL
abcg2


@<TRIPOS>ATOM
      1 N1           8.5970    -8.2710    15.2710 nb         1 A1A      -0.312000
      2 N3           4.8730    -9.7280    15.3240 na         1 A1A      -0.266400
      3 C4           8.2480    -9.2320    14.4160 ca         1 A1A       0.454900
      4 C5           7.6910    -7.8170    16.1370 ca         1 A1A       0.200900
      5 C6           6.0890    -9.1490    15.4190 ca         1 A1A       0.177500
      6 C7           4.9140   -10.6570    14.3140 cc         1 A1A      -0.281200
      7 C8           3.5640   -12.9760    15.0760 c3         1 A1A      -0.341100
      8 C10          6.9220    -9.7280    14.4530 ca         1 A1A      -0.286800
      9 C13         11.0140    -5.6090    12.2900 ca         1 A1A      -0.131000
     10 C15         10.2530    -6.8910    10.4460 ca         1 A1A      -0.245500
     11 C17         10.2710    -5.6060     7.9730 c6         1 A1A      -0.305400
     12 S1           9.6990    -7.0930     8.7690 sy         1 A1A       1.047500
     13 O2          10.3660    -8.2540     8.1830 o          1 A1A      -0.520500
     14 C18          9.9340    -4.4020     8.8340 c6         1 A1A      -0.056400
     15 C19         10.7550    -4.3980    10.1160 c6         1 A1A      -0.050100
     16 C14         10.6530    -5.6520    10.9450 ca         1 A1A       0.015700
     17 C12         10.9670    -6.7380    13.0900 ca         1 A1A      -0.030000
     18 C16         10.2000    -8.0310    11.2410 ca         1 A1A      -0.006000
     19 C11         10.5600    -7.9660    12.5780 ca         1 A1A      -0.115300
     20 C3          10.5150    -9.1940    13.4630 c3         1 A1A       0.284800
     21 C1          11.4760   -10.3030    13.0080 c3         1 A1A      -0.070700
     22 C2          11.4590   -11.4660    13.9950 c3         1 A1A      -0.088600
     23 C           12.8930    -9.7550    12.8660 c3         1 A1A      -0.088600
     24 N            9.1620    -9.7080    13.5630 nu         1 A1A      -0.912100
     25 N2           6.4370    -8.1890    16.2810 nb         1 A1A      -0.235000
     26 C9           6.1570   -10.6960    13.7510 cd         1 A1A      -0.060200
     27 S            3.5180   -11.6330    13.9120 sy         1 A1A       1.092100
     28 O            2.3300   -10.8320    14.1890 o          1 A1A      -0.519000
     29 O1           3.7360   -12.1680    12.5730 o          1 A1A      -0.519000
     30 H1           4.0640    -9.4820    15.8760 hn         1 A1A       0.382000
     31 H10          8.0410    -7.0380    16.8070 h5         1 A1A       0.046100
     32 H13          2.6950   -13.6050    14.8820 h1         1 A1A       0.104367
     33 H12          4.4790   -13.5460    14.9350 h1         1 A1A       0.104367
     34 H11          3.5160   -12.5770    16.0870 h1         1 A1A       0.104367
     35 H16         11.3300    -4.6650    12.7170 ha         1 A1A       0.117000
     36 H18         11.3460    -5.7080     7.8190 h1         1 A1A       0.107200
     37 H19          9.7750    -5.5870     7.0000 h1         1 A1A       0.107200
     38 H21         10.1500    -3.4980     8.2640 hc         1 A1A       0.066700
     39 H20          8.8650    -4.3820     9.0550 hc         1 A1A       0.066700
     40 H22         11.8080    -4.2440     9.8610 hc         1 A1A       0.064700
     41 H23         10.4670    -3.5460    10.7330 hc         1 A1A       0.064700
     42 H15         11.2500    -6.6630    14.1330 ha         1 A1A       0.126000
     43 H17          9.8810    -8.9760    10.8140 ha         1 A1A       0.126000
     44 H           10.8210    -8.8900    14.4670 h1         1 A1A       0.089700
     45 H5          11.1490   -10.6720    12.0280 hc         1 A1A       0.051700
     46 H7          10.4760   -11.9290    14.0800 hc         1 A1A       0.039533
     47 H8          12.1590   -12.2410    13.6820 hc         1 A1A       0.039533
     48 H6          11.7570   -11.1300    14.9900 hc         1 A1A       0.039533
     49 H3          12.9710    -8.9990    12.0840 hc         1 A1A       0.039533
     50 H2          13.2300    -9.3030    13.8020 hc         1 A1A       0.039533
     51 H4          13.5860   -10.5580    12.6160 hc         1 A1A       0.039533
     52 H9           8.8660   -10.3890    12.8810 hn         1 A1A       0.500000
     53 H14          6.4730   -11.3390    12.9450 ha         1 A1A       0.221000
     54 O3           8.2360    -7.0850     8.7820 o          1 A1A      -0.520500
@<TRIPOS>BOND
     1     1     3 ar  
     2     1     4 ar  
     3     2     5 1   
     4     2     6 1   
     5     2    30 1   
     6     3     8 ar  
     7     3    24 1   
     8     4    25 ar  
     9     4    31 1   
    10     5     8 ar  
    11     5    25 ar  
    12     6    26 2   
    13     6    27 1   
    14     7    27 1   
    15     7    32 1   
    16     7    33 1   
    17     7    34 1   
    18     8    26 1   
    19     9    16 ar  
    20     9    17 ar  
    21     9    35 1   
    22    10    12 1   
    23    10    16 ar  
    24    10    18 ar  
    25    11    12 1   
    26    11    14 1   
    27    11    36 1   
    28    11    37 1   
    29    12    13 2   
    30    12    54 2   
    31    14    15 1   
    32    14    38 1   
    33    14    39 1   
    34    15    16 1   
    35    15    40 1   
    36    15    41 1   
    37    17    19 ar  
    38    17    42 1   
    39    18    19 ar  
    40    18    43 1   
    41    19    20 1   
    42    20    21 1   
    43    20    24 1   
    44    20    44 1   
    45    21    22 1   
    46    21    23 1   
    47    21    45 1   
    48    22    46 1   
    49    22    47 1   
    50    22    48 1   
    51    23    49 1   
    52    23    50 1   
    53    23    51 1   
    54    24    52 1   
    55    26    53 1   
    56    27    28 2   
    57    27    29 2   
@<TRIPOS>SUBSTRUCTURE
     1 A1A         1 TEMP              0 ****  ****    0 ROOT
