@<TRIPOS>MOLECULE
A1A
   69    74     1     0     0
SMALL
abcg2


@<TRIPOS>ATOM
      1 N1           8.4190    -8.0150    14.7960 nb         1 A1A      -0.303000
      2 N3           4.7360    -9.5760    14.7350 na         1 A1A      -0.311400
      3 C4           8.1240    -9.0140    13.9630 ca         1 A1A       0.438900
      4 C5           7.4600    -7.5380    15.5890 ca         1 A1A       0.179900
      5 C6           5.9250    -8.9380    14.8490 ca         1 A1A       0.152500
      6 C7           4.8270   -10.5640    13.7780 cc         1 A1A      -0.016300
      7 C8           3.7020   -11.4370    13.4630 ca         1 A1A      -0.064800
      8 C10          2.5920   -12.9150    11.8770 ca         1 A1A      -0.144000
      9 C13          2.6960   -11.6950    14.4070 ca         1 A1A      -0.052000
     10 C17         -0.2240   -13.9470    13.9100 c          1 A1A       0.567000
     11 C20         10.6270    -7.7710    12.4140 ca         1 A1A      -0.107300
     12 C21         11.0810    -6.6070    13.0280 ca         1 A1A      -0.028000
     13 C22         11.2390    -5.4350    12.3120 ca         1 A1A      -0.132000
     14 C24         10.5060    -6.5420    10.3470 ca         1 A1A      -0.246500
     15 C26         10.7380    -5.0990     7.9740 c6         1 A1A      -0.305400
     16 C28         11.1710    -4.0690    10.2160 c6         1 A1A      -0.049100
     17 S           10.0510    -6.6060     8.6310 sy         1 A1A       1.050500
     18 O1          10.7030    -7.7550     8.0070 o          1 A1A      -0.523500
     19 C27         10.4180    -3.9400     8.9010 c6         1 A1A      -0.055400
     20 C23         10.9520    -5.3660    10.9500 ca         1 A1A       0.012700
     21 C25         10.3350    -7.7240    11.0600 ca         1 A1A      -0.006000
     22 C3          10.4660    -9.0530    13.2030 c3         1 A1A       0.290800
     23 C1          11.4080   -10.1690    12.7190 c3         1 A1A      -0.071700
     24 C2          11.2600   -11.4190    13.5820 c3         1 A1A      -0.088100
     25 C           12.8540    -9.6870    12.7290 c3         1 A1A      -0.088100
     26 N            9.0940    -9.5160    13.1810 nu         1 A1A      -0.924100
     27 C19          6.8110    -9.5310    13.9440 ca         1 A1A      -0.255800
     28 N2           6.2070    -7.9320    15.6810 nb         1 A1A      -0.230000
     29 C18          6.1030   -10.5630    13.2700 cd         1 A1A      -0.189200
     30 C12          1.6630   -12.5440    14.0840 ca         1 A1A      -0.137300
     31 C14          0.4790   -13.0000    14.8900 c5         1 A1A      -0.081700
     32 C16         -0.4570   -11.8440    15.2510 c3         1 A1A      -0.071100
     33 O           -1.2390   -14.5750    14.1200 o          1 A1A      -0.519000
     34 N4           0.4970   -13.9610    12.7540 ns         1 A1A      -0.146000
     35 C11          1.6180   -13.1480    12.8310 ca         1 A1A      -0.022000
     36 C9           3.6270   -12.0510    12.2100 ca         1 A1A      -0.057000
     37 H1           3.8990    -9.3110    15.2300 hn         1 A1A       0.361000
     38 H10          7.7580    -6.7230    16.2410 h5         1 A1A       0.042100
     39 H12          2.5530   -13.3790    10.9010 ha         1 A1A       0.126000
     40 H13          2.7350   -11.2550    15.3970 ha         1 A1A       0.116000
     41 H22         11.3120    -6.6200    14.0870 ha         1 A1A       0.125000
     42 H23         11.5870    -4.5420    12.8180 ha         1 A1A       0.116000
     43 H25         11.8130    -5.2470     7.8660 h1         1 A1A       0.106200
     44 H26         10.2970    -4.9860     6.9810 h1         1 A1A       0.106200
     45 H29         12.2430    -3.9630    10.0210 hc         1 A1A       0.063700
     46 H30         10.9030    -3.2440    10.8760 hc         1 A1A       0.063700
     47 H28         10.7080    -3.0120     8.4070 hc         1 A1A       0.065700
     48 H27          9.3410    -3.8770     9.0720 hc         1 A1A       0.065700
     49 H24          9.9800    -8.6160    10.5560 ha         1 A1A       0.126000
     50 H           10.7250    -8.8390    14.2440 h1         1 A1A       0.082700
     51 H5          11.1370   -10.4250    11.6870 hc         1 A1A       0.050700
     52 H8          10.2550   -11.8370    13.5450 hc         1 A1A       0.038867
     53 H7          11.9500   -12.1950    13.2470 hc         1 A1A       0.038867
     54 H6          11.4920   -11.1980    14.6270 hc         1 A1A       0.038867
     55 H3          13.0200    -8.8570    12.0420 hc         1 A1A       0.038867
     56 H2          13.1460    -9.3570    13.7290 hc         1 A1A       0.038867
     57 H4          13.5250   -10.4950    12.4380 hc         1 A1A       0.038867
     58 H9           8.8380   -10.2100    12.4960 hn         1 A1A       0.499000
     59 H21          6.4860   -11.2470    12.5290 ha         1 A1A       0.202000
     60 H18         -1.3480   -12.2170    15.7580 hc         1 A1A       0.046700
     61 H19          0.0490   -11.1530    15.9250 hc         1 A1A       0.046700
     62 H17         -0.7720   -11.2870    14.3680 hc         1 A1A       0.046700
     63 H20          0.2460   -14.5130    11.9470 hn         1 A1A       0.174000
     64 H11          4.3880   -11.8420    11.4690 ha         1 A1A       0.122000
     65 C15          0.8920   -13.7700    16.1460 c3         1 A1A      -0.071100
     66 O2           8.5920    -6.5300     8.5560 o          1 A1A      -0.523500
     67 H15          0.0140   -14.1620    16.6600 hc         1 A1A       0.046700
     68 H14          1.5550   -14.6020    15.9090 hc         1 A1A       0.046700
     69 H16          1.4160   -13.1050    16.8330 hc         1 A1A       0.046700
@<TRIPOS>BOND
     1     1     3 ar  
     2     1     4 ar  
     3     2     5 1   
     4     2     6 1   
     5     2    37 1   
     6     3    26 1   
     7     3    27 ar  
     8     4    28 ar  
     9     4    38 1   
    10     5    27 ar  
    11     5    28 ar  
    12     6     7 1   
    13     6    29 2   
    14     7     9 ar  
    15     7    36 ar  
    16     8    35 ar  
    17     8    36 ar  
    18     8    39 1   
    19     9    30 ar  
    20     9    40 1   
    21    10    31 1   
    22    10    33 2   
    23    10    34 1   
    24    11    12 ar  
    25    11    21 ar  
    26    11    22 1   
    27    12    13 ar  
    28    12    41 1   
    29    13    20 ar  
    30    13    42 1   
    31    14    17 1   
    32    14    20 ar  
    33    14    21 ar  
    34    15    17 1   
    35    15    19 1   
    36    15    43 1   
    37    15    44 1   
    38    16    19 1   
    39    16    20 1   
    40    16    45 1   
    41    16    46 1   
    42    17    18 2   
    43    17    66 2   
    44    19    47 1   
    45    19    48 1   
    46    21    49 1   
    47    22    23 1   
    48    22    26 1   
    49    22    50 1   
    50    23    24 1   
    51    23    25 1   
    52    23    51 1   
    53    24    52 1   
    54    24    53 1   
    55    24    54 1   
    56    25    55 1   
    57    25    56 1   
    58    25    57 1   
    59    26    58 1   
    60    27    29 1   
    61    29    59 1   
    62    30    31 1   
    63    30    35 ar  
    64    31    32 1   
    65    31    65 1   
    66    32    60 1   
    67    32    61 1   
    68    32    62 1   
    69    34    35 1   
    70    34    63 1   
    71    36    64 1   
    72    65    67 1   
    73    65    68 1   
    74    65    69 1   
@<TRIPOS>SUBSTRUCTURE
     1 A1A         1 TEMP              0 ****  ****    0 ROOT
