@<TRIPOS>MOLECULE
A1A
   29    30     1     0     0
SMALL
abcg2


@<TRIPOS>ATOM
      1 C4          11.0510    10.9500    23.8830 ca         1 A1A      -0.074000
      2 C5          11.5020    11.9620    24.7240 ca         1 A1A      -0.161600
      3 C6          12.9210    11.9380    25.2200 c          1 A1A       0.548700
      4 C7          13.8710    12.8870    24.5160 c3         1 A1A       0.109800
      5 C8          16.1440    12.0240    25.0330 c5         1 A1A       0.181300
      6 C10         16.7740    13.7920    26.6000 c5         1 A1A      -0.078900
      7 N           15.1660    13.0930    25.0760 n3         1 A1A      -0.755600
      8 C           10.6100    12.9570    25.1040 ca         1 A1A       0.142000
      9 O           13.2520    11.1580    26.0780 o          1 A1A      -0.498100
     10 C1           9.2980    12.9610    24.6600 ca         1 A1A      -0.104000
     11 C11         15.2620    13.7160    26.3790 c5         1 A1A       0.181300
     12 C2           8.8690    11.9510    23.8110 ca         1 A1A      -0.091000
     13 C3           9.7430    10.9450    23.4230 ca         1 A1A      -0.109000
     14 C9          17.3490    12.6220    25.7720 c5         1 A1A      -0.078900
     15 CL          11.1390    14.2030    26.1900 cl         1 A1A      -0.199000
     16 H3          11.7320    10.1630    23.5830 ha         1 A1A       0.123000
     17 H5          13.9680    12.5000    23.4920 h1         1 A1A       0.074200
     18 H4          13.3630    13.8510    24.4010 h1         1 A1A       0.074200
     19 H6          16.3700    11.7570    23.9980 h1         1 A1A       0.040450
     20 H10         17.0310    13.7240    27.6570 hc         1 A1A       0.045450
     21 H11         17.1610    14.7440    26.2360 hc         1 A1A       0.045450
     22 H            8.6180    13.7410    24.9760 ha         1 A1A       0.132000
     23 H13         14.7900    13.1280    27.1780 h1         1 A1A       0.040450
     24 H12         14.7820    14.6980    26.3710 h1         1 A1A       0.040450
     25 H1           7.8460    11.9520    23.4580 ha         1 A1A       0.120000
     26 H2           9.4070    10.1550    22.7660 ha         1 A1A       0.121000
     27 H9          17.8330    11.8740    26.3990 hc         1 A1A       0.045450
     28 H8          18.1010    12.9820    25.0690 hc         1 A1A       0.045450
     29 H7          15.8110    11.1100    25.5410 h1         1 A1A       0.040450
@<TRIPOS>BOND
     1     1     2 ar  
     2     1    13 ar  
     3     1    16 1   
     4     2     3 1   
     5     2     8 ar  
     6     3     4 1   
     7     3     9 2   
     8     4     7 1   
     9     4    17 1   
    10     4    18 1   
    11     5     7 1   
    12     5    14 1   
    13     5    19 1   
    14     5    29 1   
    15     6    11 1   
    16     6    14 1   
    17     6    20 1   
    18     6    21 1   
    19     7    11 1   
    20     8    10 ar  
    21     8    15 1   
    22    10    12 ar  
    23    10    22 1   
    24    11    23 1   
    25    11    24 1   
    26    12    13 ar  
    27    12    25 1   
    28    13    26 1   
    29    14    27 1   
    30    14    28 1   
@<TRIPOS>SUBSTRUCTURE
     1 A1A         1 TEMP              0 ****  ****    0 ROOT
