@<TRIPOS>MOLECULE
A1A
   61    65     1     0     0
SMALL
No Charge or Current Charge


@<TRIPOS>ATOM
      1 N1           8.7680    -7.8520    15.1760 nb         1 A1A      -0.303000
      2 N3           4.8810    -9.1970    14.9230 na         1 A1A      -0.318400
      3 C4           8.3930    -8.9180    14.4420 ca         1 A1A       0.438900
      4 C5           7.7830    -7.2110    15.8540 ca         1 A1A       0.179900
      5 C6           6.1150    -8.5990    15.1330 ca         1 A1A       0.152500
      6 C7           5.0030   -10.3030    14.0610 cc         1 A1A      -0.010100
      7 C8           3.9320   -11.1630    13.6200 cc         1 A1A      -0.137000
      8 C10          3.1130   -13.0580    12.3450 cd         1 A1A      -0.314200
      9 C13          2.6390   -10.9230    14.0550 cd         1 A1A      -0.026400
     10 C15          7.0490    -9.3060    14.4150 ca         1 A1A      -0.253800
     11 C17         11.2810    -6.7370    13.0270 ca         1 A1A      -0.028000
     12 C20         10.1470    -6.8440    10.4550 ca         1 A1A      -0.246500
     13 C21         10.1570    -7.9890    11.2790 ca         1 A1A      -0.006000
     14 C22          9.8940    -5.4760     7.9720 c6         1 A1A      -0.306400
     15 C24         10.7670    -4.3420    10.0790 c6         1 A1A      -0.050100
     16 S            9.3870    -6.9810     8.8270 sy         1 A1A       1.051500
     17 O1           9.9890    -8.1290     8.1350 o          1 A1A      -0.523000
     18 C23          9.7660    -4.2530     8.9050 c6         1 A1A      -0.055400
     19 C19         10.7060    -5.6280    10.9220 ca         1 A1A       0.013700
     20 C18         11.2720    -5.5950    12.2110 ca         1 A1A      -0.132000
     21 C16         10.7250    -7.9450    12.5670 ca         1 A1A      -0.109300
     22 C3          10.7430    -9.1870    13.4630 c3         1 A1A       0.289800
     23 C1          11.5670   -10.3660    12.8550 c3         1 A1A      -0.071700
     24 C2          12.9890    -9.9240    12.4250 c3         1 A1A      -0.088100
     25 C           11.6600   -11.5770    13.8190 c3         1 A1A      -0.088100
     26 N            9.3600    -9.6080    13.7270 nu         1 A1A      -0.922100
     27 N2           6.4660    -7.5310    15.8710 nb         1 A1A      -0.231000
     28 C14          6.3470   -10.3760    13.7420 cd         1 A1A      -0.192200
     29 N4           1.5610   -11.7230    13.6610 n          1 A1A      -0.266000
     30 C12          0.1960   -11.4280    14.1530 c3         1 A1A       0.074300
     31 C11          1.7300   -12.8250    12.7930 c          1 A1A       0.548200
     32 O            0.8030   -13.5390    12.4340 o          1 A1A      -0.550000
     33 C9           4.1730   -12.2690    12.7340 cc         1 A1A      -0.074000
     34 H1           4.0200    -8.8690    15.3410 hn         1 A1A       0.357000
     35 H10          8.0830    -6.3490    16.4470 h5         1 A1A       0.042100
     36 H12          3.2400   -13.9040    11.6790 ha         1 A1A       0.212000
     37 H16          2.3580   -10.1160    14.7230 h4         1 A1A       0.195000
     38 H18         11.7230    -6.6810    14.0200 ha         1 A1A       0.125000
     39 H20          9.7180    -8.9170    10.9190 ha         1 A1A       0.126000
     40 H21         10.9340    -5.6350     7.6600 h1         1 A1A       0.106700
     41 H22          9.2480    -5.3940     7.0890 h1         1 A1A       0.106700
     42 H25         11.7870    -4.2340     9.6860 hc         1 A1A       0.063700
     43 H26         10.6120    -3.4730    10.7340 hc         1 A1A       0.063700
     44 H24          9.9560    -3.3330     8.3350 hc         1 A1A       0.065700
     45 H23          8.7390    -4.1690     9.2900 hc         1 A1A       0.065700
     46 H19         11.7150    -4.6750    12.5840 ha         1 A1A       0.116000
     47 H           11.2230    -8.9180    14.4160 h1         1 A1A       0.083700
     48 H5          11.0530   -10.7100    11.9490 hc         1 A1A       0.050700
     49 H8          12.9490    -9.1540    11.6450 hc         1 A1A       0.039033
     50 H6          13.5470    -9.5200    13.2790 hc         1 A1A       0.039033
     51 H7          13.5530   -10.7730    12.0190 hc         1 A1A       0.039033
     52 H4          10.6670   -11.9760    14.0580 hc         1 A1A       0.039033
     53 H3          12.2410   -12.3900    13.3660 hc         1 A1A       0.039033
     54 H2          12.1490   -11.2910    14.7590 hc         1 A1A       0.039033
     55 H9           9.0170   -10.4190    13.2210 hn         1 A1A       0.498000
     56 H17          6.8010   -11.1160    13.0900 ha         1 A1A       0.202000
     57 H14          0.1990   -10.5530    14.8150 h1         1 A1A       0.056700
     58 H13         -0.4670   -11.2240    13.3020 h1         1 A1A       0.056700
     59 H15         -0.1900   -12.2910    14.7100 h1         1 A1A       0.056700
     60 H11          5.1770   -12.4800    12.3770 ha         1 A1A       0.193000
     61 O2           7.9310    -6.9160     9.0130 o          1 A1A      -0.523000
@<TRIPOS>BOND
     1     1     3 ar  
     2     1     4 ar  
     3     2     5 1   
     4     2     6 1   
     5     2    34 1   
     6     3    10 ar  
     7     3    26 1   
     8     4    27 ar  
     9     4    35 1   
    10     5    10 ar  
    11     5    27 ar  
    12     6     7 1   
    13     6    28 2   
    14     7     9 2   
    15     7    33 1   
    16     8    31 1   
    17     8    33 2   
    18     8    36 1   
    19     9    29 1   
    20     9    37 1   
    21    10    28 1   
    22    11    20 ar  
    23    11    21 ar  
    24    11    38 1   
    25    12    13 ar  
    26    12    16 1   
    27    12    19 ar  
    28    13    21 ar  
    29    13    39 1   
    30    14    16 1   
    31    14    18 1   
    32    14    40 1   
    33    14    41 1   
    34    15    18 1   
    35    15    19 1   
    36    15    42 1   
    37    15    43 1   
    38    16    17 2   
    39    16    61 2   
    40    18    44 1   
    41    18    45 1   
    42    19    20 ar  
    43    20    46 1   
    44    21    22 1   
    45    22    23 1   
    46    22    26 1   
    47    22    47 1   
    48    23    24 1   
    49    23    25 1   
    50    23    48 1   
    51    24    49 1   
    52    24    50 1   
    53    24    51 1   
    54    25    52 1   
    55    25    53 1   
    56    25    54 1   
    57    26    55 1   
    58    28    56 1   
    59    29    30 1   
    60    29    31 1   
    61    30    57 1   
    62    30    58 1   
    63    30    59 1   
    64    31    32 2   
    65    33    60 1   
@<TRIPOS>SUBSTRUCTURE
     1 A1A         1 TEMP              0 ****  ****    0 ROOT
