@<TRIPOS>MOLECULE
A1A
   64    68     1     0     0
SMALL
abcg2


@<TRIPOS>ATOM
      1 N1         -10.2000    -6.7360    18.6810 nb         1 A1A      -0.302000
      2 N3         -13.7990    -7.7010    20.1490 na         1 A1A      -0.309400
      3 C4         -10.5150    -8.0120    18.9020 ca         1 A1A       0.445900
      4 C5         -11.1080    -5.7980    18.9550 ca         1 A1A       0.190900
      5 C6         -12.6340    -7.2320    19.6480 ca         1 A1A       0.163500
      6 C7         -13.7190    -9.0750    20.2660 cc         1 A1A      -0.170300
      7 C8         -14.7750    -9.9620    20.7940 c          1 A1A       0.645300
      8 C10        -18.1190    -9.3760    22.3020 cy         1 A1A       0.125300
      9 C13        -12.4930    -9.4900    19.8180 cd         1 A1A      -0.117200
     10 C15         -8.3850    -8.3500    16.6250 ca         1 A1A      -0.109300
     11 C17         -7.8830    -6.8670    14.7840 ca         1 A1A      -0.132000
     12 C20         -8.9980    -9.2100    15.7290 ca         1 A1A      -0.006000
     13 C21         -9.3770    -9.5970    11.7060 c6         1 A1A      -0.306400
     14 C22         -9.4860    -8.0910    11.5360 c6         1 A1A      -0.055400
     15 S           -9.9080   -10.0520    13.3440 sy         1 A1A       1.053500
     16 O1          -9.4500   -11.4010    13.6660 o          1 A1A      -0.523000
     17 C23         -8.4670    -7.3630    12.4010 c6         1 A1A      -0.049100
     18 C18         -8.4890    -7.7210    13.8640 ca         1 A1A       0.013700
     19 C16         -7.8340    -7.1710    16.1330 ca         1 A1A      -0.028000
     20 C19         -9.0410    -8.8950    14.3750 ca         1 A1A      -0.247500
     21 C3          -8.2940    -8.6990    18.0940 c3         1 A1A       0.290800
     22 C1          -7.3750    -9.9070    18.3540 c3         1 A1A      -0.072700
     23 C2          -7.2140   -10.1640    19.8500 c3         1 A1A      -0.088600
     24 C           -6.0100    -9.7030    17.7060 c3         1 A1A      -0.088600
     25 N           -9.6040    -8.9630    18.6530 nu         1 A1A      -0.918100
     26 C14        -11.7930    -8.3250    19.4160 ca         1 A1A      -0.276800
     27 N2         -12.3260    -5.9500    19.4300 nb         1 A1A      -0.236000
     28 O          -14.4920   -11.1020    21.1340 o          1 A1A      -0.583100
     29 N4         -16.0180    -9.4470    20.8720 ns         1 A1A      -0.495900
     30 C9         -17.1390   -10.1560    21.4130 cy         1 A1A       0.076700
     31 C12        -18.3580   -10.4240    20.5150 cy         1 A1A       0.125300
     32 N5         -19.2130   -10.1050    21.6590 nq         1 A1A      -0.704600
     33 C11        -20.4440    -9.4010    21.4140 c3         1 A1A       0.151100
     34 H1         -14.5350    -7.1050    20.4950 hn         1 A1A       0.360000
     35 H10        -10.7940    -4.7780    18.7560 h5         1 A1A       0.043100
     36 H13        -18.0390    -9.4900    23.3850 h1         1 A1A       0.051950
     37 H14        -18.1110    -8.3030    22.0570 h1         1 A1A       0.051950
     38 H20        -12.1560   -10.5140    19.7780 ha         1 A1A       0.219000
     39 H22         -7.4470    -5.9410    14.4290 ha         1 A1A       0.116000
     40 H23         -9.4380   -10.1350    16.0850 ha         1 A1A       0.128000
     41 H25         -8.3510    -9.9490    11.5820 h1         1 A1A       0.106700
     42 H24        -10.0240   -10.1510    11.0220 h1         1 A1A       0.106700
     43 H27         -9.3090    -7.8490    10.4880 hc         1 A1A       0.065700
     44 H26        -10.5000    -7.7580    11.7640 hc         1 A1A       0.065700
     45 H28         -7.4640    -7.5740    12.0170 hc         1 A1A       0.063700
     46 H29         -8.6060    -6.2850    12.3010 hc         1 A1A       0.063700
     47 H21         -7.3580    -6.4790    16.8170 ha         1 A1A       0.123000
     48 H           -7.8700    -7.8380    18.6200 h1         1 A1A       0.082700
     49 H5          -7.8420   -10.7880    17.8950 hc         1 A1A       0.051700
     50 H6          -8.1610   -10.3790    20.3460 hc         1 A1A       0.039700
     51 H7          -6.5560   -11.0180    20.0160 hc         1 A1A       0.039700
     52 H8          -6.7660    -9.2990    20.3440 hc         1 A1A       0.039700
     53 H3          -6.0720    -9.6230    16.6220 hc         1 A1A       0.039700
     54 H2          -5.5290    -8.7970    18.0820 hc         1 A1A       0.039700
     55 H4          -5.3560   -10.5450    17.9360 hc         1 A1A       0.039700
     56 H9          -9.8960    -9.9240    18.7380 hn         1 A1A       0.501000
     57 H11        -16.2210    -8.5580    20.4410 hn         1 A1A       0.307500
     58 H12        -16.7850   -11.0620    21.8970 h1         1 A1A       0.109700
     59 H19        -18.4800   -11.4240    20.0910 h1         1 A1A       0.051950
     60 H18        -18.4240    -9.6840    19.7030 h1         1 A1A       0.051950
     61 H15        -21.1310   -10.0340    20.8500 h1         1 A1A       0.033700
     62 H17        -20.9260    -9.1520    22.3600 h1         1 A1A       0.033700
     63 H16        -20.3030    -8.4670    20.8500 h1         1 A1A       0.033700
     64 O2         -11.3390    -9.7770    13.4640 o          1 A1A      -0.523000
@<TRIPOS>BOND
     1     1     3 ar  
     2     1     4 ar  
     3     2     5 1   
     4     2     6 1   
     5     2    34 1   
     6     3    25 1   
     7     3    26 ar  
     8     4    27 ar  
     9     4    35 1   
    10     5    26 ar  
    11     5    27 ar  
    12     6     7 1   
    13     6     9 2   
    14     7    28 2   
    15     7    29 1   
    16     8    30 1   
    17     8    32 1   
    18     8    36 1   
    19     8    37 1   
    20     9    26 1   
    21     9    38 1   
    22    10    12 ar  
    23    10    19 ar  
    24    10    21 1   
    25    11    18 ar  
    26    11    19 ar  
    27    11    39 1   
    28    12    20 ar  
    29    12    40 1   
    30    13    14 1   
    31    13    15 1   
    32    13    41 1   
    33    13    42 1   
    34    14    17 1   
    35    14    43 1   
    36    14    44 1   
    37    15    16 2   
    38    15    20 1   
    39    15    64 2   
    40    17    18 1   
    41    17    45 1   
    42    17    46 1   
    43    18    20 ar  
    44    19    47 1   
    45    21    22 1   
    46    21    25 1   
    47    21    48 1   
    48    22    23 1   
    49    22    24 1   
    50    22    49 1   
    51    23    50 1   
    52    23    51 1   
    53    23    52 1   
    54    24    53 1   
    55    24    54 1   
    56    24    55 1   
    57    25    56 1   
    58    29    30 1   
    59    29    57 1   
    60    30    31 1   
    61    30    58 1   
    62    31    32 1   
    63    31    59 1   
    64    31    60 1   
    65    32    33 1   
    66    33    61 1   
    67    33    62 1   
    68    33    63 1   
@<TRIPOS>SUBSTRUCTURE
     1 A1A         1 TEMP              0 ****  ****    0 ROOT
