@<TRIPOS>MOLECULE
A1A
    9     9     1     0     0
SMALL
No Charge or Current Charge


@<TRIPOS>ATOM
      1 N1           6.8830    38.4030    24.5670 nc         1 A1A      -0.636000
      2 N            9.8900    38.1050    22.6530 n1         1 A1A      -0.429000
      3 C            9.0390    38.5270    23.3360 cg         1 A1A       0.250000
      4 O            6.8780    40.5040    25.4500 os         1 A1A      -0.247000
      5 C1           8.0150    39.0700    24.1720 cc         1 A1A       0.303000
      6 C2           8.0020    40.3240    24.7050 cd         1 A1A       0.153900
      7 C3           6.2430    39.2940    25.3220 cd         1 A1A       0.432900
      8 H            8.7050    41.1420    24.6290 h4         1 A1A       0.080100
      9 H1           5.2940    39.1610    25.8300 h5         1 A1A       0.093100
@<TRIPOS>BOND
     1     1     5 1   
     2     1     7 2   
     3     2     3 3   
     4     3     5 1   
     5     4     6 1   
     6     4     7 1   
     7     5     6 2   
     8     6     8 1   
     9     7     9 1   
@<TRIPOS>SUBSTRUCTURE
     1 A1A         1 TEMP              0 ****  ****    0 ROOT
