@<TRIPOS>MOLECULE
A1A
   48    51     1     0     0
SMALL
abcg2


@<TRIPOS>ATOM
      1 N1           8.5000    -7.9350    15.0760 nb         1 A1A      -0.300000
      2 N3           4.8060    -9.4740    15.1740 na         1 A1A      -0.304400
      3 C4           8.2140    -9.0380    14.3850 ca         1 A1A       0.440900
      4 C5           7.5360    -7.3590    15.7930 ca         1 A1A       0.185900
      5 C6           6.0050    -8.8420    15.2300 ca         1 A1A       0.160500
      6 C7           4.9330   -10.5720    14.3630 cc         1 A1A      -0.055400
      7 C8           6.2020   -10.6700    13.8790 cd         1 A1A      -0.158200
      8 C10         10.5350    -7.8940    12.6120 ca         1 A1A      -0.108300
      9 C13         10.6330    -5.6670    10.8630 ca         1 A1A       0.013700
     10 C15          9.7700    -4.4360     8.7970 c6         1 A1A      -0.056400
     11 C17         10.0310    -6.8690    10.4950 ca         1 A1A      -0.247500
     12 S            9.2090    -7.0730     8.9370 sy         1 A1A       1.050500
     13 O            7.7770    -6.8640     9.1530 o          1 A1A      -0.522500
     14 C16          9.8340    -5.7120     7.9730 c6         1 A1A      -0.306400
     15 C14         10.7590    -4.4740     9.9520 c6         1 A1A      -0.049100
     16 C12         11.1860    -5.6140    12.1420 ca         1 A1A      -0.131000
     17 C11         11.1340    -6.6990    12.9990 ca         1 A1A      -0.030000
     18 C18          9.9770    -7.9660    11.3470 ca         1 A1A      -0.007000
     19 C3          10.5210    -9.0940    13.5320 c3         1 A1A       0.290800
     20 C1          11.4740   -10.2040    13.0570 c3         1 A1A      -0.071700
     21 C2          11.5120   -11.3530    14.0610 c3         1 A1A      -0.088600
     22 C           12.8790    -9.6550    12.8310 c3         1 A1A      -0.088600
     23 N            9.1850    -9.6340    13.6760 nu         1 A1A      -0.921100
     24 C9           6.9020    -9.5580    14.4340 ca         1 A1A      -0.264800
     25 BR           3.4890   -11.6930    14.0510 br         1 A1A      -0.021700
     26 N2           6.2810    -7.7370    15.9250 nb         1 A1A      -0.228000
     27 H1           3.9690    -9.1840    15.6570 hn         1 A1A       0.374000
     28 H10          7.8280    -6.4650    16.3350 h5         1 A1A       0.044100
     29 H11          6.5750   -11.4350    13.2170 ha         1 A1A       0.214000
     30 H16          8.7520    -4.2720     9.1600 hc         1 A1A       0.066200
     31 H17         10.0050    -3.5940     8.1460 hc         1 A1A       0.066200
     32 H19          9.2090    -5.6730     7.0780 h1         1 A1A       0.106200
     33 H18         10.8570    -5.9550     7.6770 h1         1 A1A       0.106200
     34 H15         10.6660    -3.5640    10.5460 hc         1 A1A       0.064200
     35 H14         11.7760    -4.4660     9.5440 hc         1 A1A       0.064200
     36 H13         11.6590    -4.6970    12.4700 ha         1 A1A       0.116000
     37 H12         11.5690    -6.6190    13.9880 ha         1 A1A       0.123000
     38 H20          9.5030    -8.8850    11.0190 ha         1 A1A       0.127000
     39 H           10.8610    -8.7640    14.5180 h1         1 A1A       0.083700
     40 H5          11.1000   -10.5880    12.0990 hc         1 A1A       0.051700
     41 H8          10.5400   -11.8250    14.1980 hc         1 A1A       0.039033
     42 H7          12.2050   -12.1260    13.7270 hc         1 A1A       0.039033
     43 H6          11.8530   -10.9990    15.0370 hc         1 A1A       0.039033
     44 H4          12.9160    -8.9270    12.0220 hc         1 A1A       0.039033
     45 H2          13.2600    -9.1730    13.7340 hc         1 A1A       0.039033
     46 H3          13.5620   -10.4650    12.5740 hc         1 A1A       0.039033
     47 H9           8.9300   -10.4200    13.0980 hn         1 A1A       0.499000
     48 O1           9.6250    -8.3480     8.3550 o          1 A1A      -0.522500
@<TRIPOS>BOND
     1     1     3 ar  
     2     1     4 ar  
     3     2     5 1   
     4     2     6 1   
     5     2    27 1   
     6     3    23 1   
     7     3    24 ar  
     8     4    26 ar  
     9     4    28 1   
    10     5    24 ar  
    11     5    26 ar  
    12     6     7 2   
    13     6    25 1   
    14     7    24 1   
    15     7    29 1   
    16     8    17 ar  
    17     8    18 ar  
    18     8    19 1   
    19     9    11 ar  
    20     9    15 1   
    21     9    16 ar  
    22    10    14 1   
    23    10    15 1   
    24    10    30 1   
    25    10    31 1   
    26    11    12 1   
    27    11    18 ar  
    28    12    13 2   
    29    12    14 1   
    30    12    48 2   
    31    14    32 1   
    32    14    33 1   
    33    15    34 1   
    34    15    35 1   
    35    16    17 ar  
    36    16    36 1   
    37    17    37 1   
    38    18    38 1   
    39    19    20 1   
    40    19    23 1   
    41    19    39 1   
    42    20    21 1   
    43    20    22 1   
    44    20    40 1   
    45    21    41 1   
    46    21    42 1   
    47    21    43 1   
    48    22    44 1   
    49    22    45 1   
    50    22    46 1   
    51    23    47 1   
@<TRIPOS>SUBSTRUCTURE
     1 A1A         1 TEMP              0 ****  ****    0 ROOT
