@<TRIPOS>MOLECULE
A1A
   55    59     1     0     0
SMALL
No Charge or Current Charge


@<TRIPOS>ATOM
      1 N1           8.6700    -7.8260    15.1530 nb         1 A1A      -0.304000
      2 N3           4.7630    -9.1120    14.8830 na         1 A1A      -0.311400
      3 C4           8.2860    -8.8990    14.4330 ca         1 A1A       0.436900
      4 C5           7.6890    -7.1570    15.8080 ca         1 A1A       0.176900
      5 C6           6.0050    -8.5310    15.0950 ca         1 A1A       0.150500
      6 C7           4.8830   -10.2310    14.0450 cc         1 A1A       0.030700
      7 C8           3.8130   -11.0770    13.6090 cc         1 A1A      -0.159800
      8 C10          3.9400   -12.1610    12.7950 cd         1 A1A      -0.147000
      9 C13         10.6530    -7.9980    12.5670 ca         1 A1A      -0.107300
     10 C15         11.2430    -5.6650    12.1760 ca         1 A1A      -0.132000
     11 C17         10.1140    -6.9250    10.4310 ca         1 A1A      -0.246500
     12 C20          9.7930    -4.3550     8.8330 c6         1 A1A      -0.055400
     13 C21         10.7800    -4.4400    10.0190 c6         1 A1A      -0.049100
     14 S            9.3690    -7.0770     8.7980 sy         1 A1A       1.049500
     15 O            7.9120    -6.9840     8.9670 o          1 A1A      -0.523500
     16 C19          9.9100    -5.5950     7.9220 c6         1 A1A      -0.306400
     17 C16         10.6890    -5.7100    10.8830 ca         1 A1A       0.012700
     18 C14         11.2240    -6.7930    13.0120 ca         1 A1A      -0.027000
     19 C18         10.0970    -8.0550    11.2730 ca         1 A1A      -0.005000
     20 C3          10.6410    -9.2250    13.4830 c3         1 A1A       0.290800
     21 C1          11.4490   -10.4290    12.9040 c3         1 A1A      -0.071700
     22 C2          12.8830   -10.0180    12.4800 c3         1 A1A      -0.088600
     23 C           11.5120   -11.6250    13.8890 c3         1 A1A      -0.088600
     24 N            9.2480    -9.6180    13.7420 nu         1 A1A      -0.925100
     25 C12          6.9370    -9.2660    14.3990 ca         1 A1A      -0.251800
     26 N2           6.3660    -7.4540    15.8170 nb         1 A1A      -0.228000
     27 C11          6.2240   -10.3380    13.7380 cd         1 A1A      -0.206200
     28 N5           2.6310   -12.6480    12.6630 na         1 A1A       0.001800
     29 N4           1.6990   -11.8860    13.3790 nd         1 A1A      -0.512800
     30 C9           2.4530   -10.9550    13.9310 cc         1 A1A       0.245900
     31 H1           3.8980    -8.7700    15.2810 hn         1 A1A       0.362000
     32 H11          7.9960    -6.2890    16.3880 h5         1 A1A       0.041100
     33 H13          4.8030   -12.6130    12.3180 h4         1 A1A       0.160000
     34 H16         11.6970    -4.7460    12.5390 ha         1 A1A       0.116000
     35 H21         10.0040    -3.4470     8.2490 hc         1 A1A       0.065700
     36 H20          8.7640    -4.2470     9.2060 hc         1 A1A       0.065700
     37 H22         11.8060    -4.3560     9.6350 hc         1 A1A       0.063700
     38 H23         10.6330    -3.5570    10.6560 hc         1 A1A       0.063700
     39 H18         10.9500    -5.7770     7.6230 h1         1 A1A       0.106200
     40 H19          9.2750    -5.5180     7.0320 h1         1 A1A       0.106200
     41 H15         11.6570    -6.7270    14.0080 ha         1 A1A       0.126000
     42 H17          9.6450    -8.9820    10.9250 ha         1 A1A       0.126000
     43 H           11.1160    -8.9490    14.4360 h1         1 A1A       0.082700
     44 H6          10.9380   -10.7790    11.9990 hc         1 A1A       0.049700
     45 H9          12.8630    -9.2610    11.6870 hc         1 A1A       0.038700
     46 H7          13.4400    -9.6100    13.3320 hc         1 A1A       0.038700
     47 H8          13.4360   -10.8840    12.0940 hc         1 A1A       0.038700
     48 H5          10.5100   -12.0020    14.1250 hc         1 A1A       0.038700
     49 H4          12.0830   -12.4550    13.4550 hc         1 A1A       0.038700
     50 H3          11.9970   -11.3310    14.8280 hc         1 A1A       0.038700
     51 H10          8.8960   -10.4310    13.2460 hn         1 A1A       0.498000
     52 H14          6.6570   -11.1050    13.1020 ha         1 A1A       0.198000
     53 H2           2.3450   -13.4610    12.1180 hn         1 A1A       0.376000
     54 H12          1.9870   -10.2070    14.5580 h4         1 A1A       0.036100
     55 O1           9.9580    -8.2460     8.1310 o          1 A1A      -0.523500
@<TRIPOS>BOND
     1     1     3 ar  
     2     1     4 ar  
     3     2     5 1   
     4     2     6 1   
     5     2    31 1   
     6     3    24 1   
     7     3    25 ar  
     8     4    26 ar  
     9     4    32 1   
    10     5    25 ar  
    11     5    26 ar  
    12     6     7 1   
    13     6    27 2   
    14     7     8 2   
    15     7    30 1   
    16     8    28 1   
    17     8    33 1   
    18     9    18 ar  
    19     9    19 ar  
    20     9    20 1   
    21    10    17 ar  
    22    10    18 ar  
    23    10    34 1   
    24    11    14 1   
    25    11    17 ar  
    26    11    19 ar  
    27    12    13 1   
    28    12    16 1   
    29    12    35 1   
    30    12    36 1   
    31    13    17 1   
    32    13    37 1   
    33    13    38 1   
    34    14    15 2   
    35    14    16 1   
    36    14    55 2   
    37    16    39 1   
    38    16    40 1   
    39    18    41 1   
    40    19    42 1   
    41    20    21 1   
    42    20    24 1   
    43    20    43 1   
    44    21    22 1   
    45    21    23 1   
    46    21    44 1   
    47    22    45 1   
    48    22    46 1   
    49    22    47 1   
    50    23    48 1   
    51    23    49 1   
    52    23    50 1   
    53    24    51 1   
    54    25    27 1   
    55    27    52 1   
    56    28    29 1   
    57    28    53 1   
    58    29    30 2   
    59    30    54 1   
@<TRIPOS>SUBSTRUCTURE
     1 A1A         1 TEMP              0 ****  ****    0 ROOT
