@<TRIPOS>MOLECULE
A1A
   29    29     1     0     0
SMALL
abcg2


@<TRIPOS>ATOM
      1 C4          10.1250    11.6650    23.7580 ca         1 A1A       0.145100
      2 C5           9.7340    12.7380    24.5510 ca         1 A1A      -0.186000
      3 C6           8.9010    12.5250    25.6440 ca         1 A1A      -0.078000
      4 C7           8.4540    11.2510    25.9470 ca         1 A1A      -0.142000
      5 C8           8.8490    10.1860    25.1440 ca         1 A1A      -0.080000
      6 N           10.7600    15.0690    21.1800 n          1 A1A      -0.415800
      7 C           12.0420    15.6720    21.4830 c3         1 A1A       0.084800
      8 O            9.3000    13.3460    21.3380 o          1 A1A      -0.572100
      9 C1           9.8100    15.9510    20.5360 c3         1 A1A       0.084800
     10 C2          10.3960    13.8310    21.5660 c          1 A1A       0.570100
     11 C3          11.4540    13.0140    22.3130 c3         1 A1A       0.083600
     12 C9           9.6830    10.3650    24.0490 ca         1 A1A      -0.097300
     13 O1          10.9550    11.7640    22.6940 os         1 A1A      -0.321100
     14 H8          10.0590    13.7480    24.3400 ha         1 A1A       0.110000
     15 H9           8.6040    13.3690    26.2530 ha         1 A1A       0.109000
     16 H10          7.8030    11.0810    26.7940 ha         1 A1A       0.113000
     17 H11          8.5020     9.1850    25.3730 ha         1 A1A       0.111000
     18 H13          9.7960     9.3350    22.1550 hc         1 A1A       0.042700
     19 H14         11.1890     9.0800    23.1890 hc         1 A1A       0.042700
     20 H12          9.6650     8.2810    23.5590 hc         1 A1A       0.042700
     21 H1          12.8190    14.9300    21.6450 h1         1 A1A       0.041867
     22 H           12.3570    16.2810    20.6360 h1         1 A1A       0.041867
     23 H2          11.9870    16.3160    22.3630 h1         1 A1A       0.041867
     24 H5           8.8730    15.4350    20.3560 h1         1 A1A       0.041867
     25 H4           9.6140    16.8250    21.1610 h1         1 A1A       0.041867
     26 H3          10.2080    16.2990    19.5810 h1         1 A1A       0.041867
     27 H7          12.2940    12.8080    21.6460 h1         1 A1A       0.067200
     28 H6          11.8560    13.5690    23.1680 h1         1 A1A       0.067200
     29 C10         10.1050     9.2070    23.1940 c3         1 A1A      -0.034800
@<TRIPOS>BOND
     1     1     2 ar  
     2     1    12 ar  
     3     1    13 1   
     4     2     3 ar  
     5     2    14 1   
     6     3     4 ar  
     7     3    15 1   
     8     4     5 ar  
     9     4    16 1   
    10     5    12 ar  
    11     5    17 1   
    12     6     7 1   
    13     6     9 1   
    14     6    10 1   
    15     7    21 1   
    16     7    22 1   
    17     7    23 1   
    18     8    10 2   
    19     9    24 1   
    20     9    25 1   
    21     9    26 1   
    22    10    11 1   
    23    11    13 1   
    24    11    27 1   
    25    11    28 1   
    26    12    29 1   
    27    18    29 1   
    28    19    29 1   
    29    20    29 1   
@<TRIPOS>SUBSTRUCTURE
     1 A1A         1 TEMP              0 ****  ****    0 ROOT
