@<TRIPOS>MOLECULE
A1A
    9     9     1     0     0
SMALL
abcg2


@<TRIPOS>ATOM
      1 N1           6.8940    38.4250    24.5700 nc         1 A1A      -0.636000
      2 N            9.8270    38.0600    22.6710 n1         1 A1A      -0.429000
      3 C            9.0210    38.5260    23.3470 cg         1 A1A       0.250000
      4 O            6.8890    40.4540    25.4230 os         1 A1A      -0.247000
      5 C1           8.0300    39.1040    24.1780 cc         1 A1A       0.303000
      6 C2           8.0160    40.3500    24.7090 cd         1 A1A       0.153900
      7 C3           6.2660    39.2710    25.2980 cd         1 A1A       0.432900
      8 H            8.6840    41.1940    24.6610 h4         1 A1A       0.080100
      9 H1           5.3220    39.1460    25.8070 h5         1 A1A       0.093100
@<TRIPOS>BOND
     1     1     5 1   
     2     1     7 2   
     3     2     3 3   
     4     3     5 1   
     5     4     6 1   
     6     4     7 1   
     7     5     6 2   
     8     6     8 1   
     9     7     9 1   
@<TRIPOS>SUBSTRUCTURE
     1 A1A         1 TEMP              0 ****  ****    0 ROOT
