@<TRIPOS>MOLECULE
A1A
   69    74     1     0     0
SMALL
No Charge or Current Charge


@<TRIPOS>ATOM
      1 N1           8.8350    -8.0110    15.2220 nb         1 A1A      -0.303000
      2 N3           4.9750    -9.4390    15.0260 na         1 A1A      -0.311400
      3 C4           8.4620    -9.0510    14.4500 ca         1 A1A       0.438900
      4 C5           7.8580    -7.4260    15.9570 ca         1 A1A       0.179900
      5 C6           6.2000    -8.8200    15.2240 ca         1 A1A       0.152500
      6 C7           5.0930   -10.4960    14.1040 cc         1 A1A      -0.016300
      7 C8           4.0610   -11.4280    13.6360 ca         1 A1A      -0.064800
      8 C10          3.2860   -13.1750    12.0800 ca         1 A1A      -0.144000
      9 C13          2.8090   -11.4710    14.2990 ca         1 A1A      -0.052000
     10 C17         -0.1260   -13.7270    13.4070 c          1 A1A       0.567000
     11 C20         10.7040    -7.9360    12.5470 ca         1 A1A      -0.107300
     12 C21         11.2440    -6.7360    13.0440 ca         1 A1A      -0.028000
     13 C22         11.1790    -5.5590    12.2800 ca         1 A1A      -0.132000
     14 C24         10.0270    -6.7590    10.5080 ca         1 A1A      -0.246500
     15 C26          9.6560    -5.2880     8.0990 c6         1 A1A      -0.305400
     16 C28         10.5710    -4.2260    10.2250 c6         1 A1A      -0.049100
     17 S            9.2160    -6.8430     8.9010 sy         1 A1A       1.050500
     18 O1           9.8230    -7.9420     8.1380 o          1 A1A      -0.523500
     19 C27          9.5280    -4.1120     9.0900 c6         1 A1A      -0.055400
     20 C23         10.5700    -5.5500    11.0110 ca         1 A1A       0.012700
     21 C25         10.0940    -7.9380    11.2780 ca         1 A1A      -0.006000
     22 C3          10.7840    -9.2150    13.3850 c3         1 A1A       0.290800
     23 C1          11.6150   -10.3440    12.6980 c3         1 A1A      -0.071700
     24 C2          11.7710   -11.5940    13.6030 c3         1 A1A      -0.088100
     25 C           13.0110    -9.8460    12.2420 c3         1 A1A      -0.088100
     26 N            9.4210    -9.6850    13.6750 nu         1 A1A      -0.924100
     27 C19          7.1270    -9.4700    14.4450 ca         1 A1A      -0.255800
     28 N2           6.5490    -7.7780    16.0000 nb         1 A1A      -0.230000
     29 C18          6.4300   -10.5260    13.7460 cd         1 A1A      -0.189200
     30 C12          1.8250   -12.3630    13.8460 ca         1 A1A      -0.137300
     31 C14          0.4110   -12.6040    14.3810 c5         1 A1A      -0.081700
     32 C16         -0.4670   -11.3310    14.2820 c3         1 A1A      -0.071100
     33 O           -1.2100   -14.2980    13.3770 o          1 A1A      -0.519000
     34 N4           0.9340   -13.9440    12.5520 ns         1 A1A      -0.146000
     35 C11          2.0720   -13.1830    12.7690 ca         1 A1A      -0.022000
     36 C9           4.2870   -12.2850    12.5220 ca         1 A1A      -0.057000
     37 H1           4.1180    -9.1580    15.4850 hn         1 A1A       0.361000
     38 H10          8.1560    -6.5850    16.5810 h5         1 A1A       0.042100
     39 H12          3.4540   -13.8300    11.2280 ha         1 A1A       0.126000
     40 H13          2.6050   -10.8310    15.1530 ha         1 A1A       0.116000
     41 H22         11.7180    -6.7120    14.0230 ha         1 A1A       0.125000
     42 H23         11.6110    -4.6450    12.6810 ha         1 A1A       0.116000
     43 H25         10.6880    -5.4050     7.7450 h1         1 A1A       0.106200
     44 H26          8.9790    -5.1850     7.2420 h1         1 A1A       0.106200
     45 H29         11.5740    -4.0740     9.8040 hc         1 A1A       0.063700
     46 H30         10.4160    -3.3910    10.9230 hc         1 A1A       0.063700
     47 H28          9.6760    -3.1630     8.5560 hc         1 A1A       0.065700
     48 H27          8.5130    -4.0730     9.5120 hc         1 A1A       0.065700
     49 H24          9.6660    -8.8610    10.8910 ha         1 A1A       0.126000
     50 H           11.2890    -8.9770    14.3330 h1         1 A1A       0.082700
     51 H5          11.0790   -10.6610    11.7950 hc         1 A1A       0.050700
     52 H8          10.7970   -12.0290    13.8560 hc         1 A1A       0.038867
     53 H7          12.3560   -12.3700    13.0950 hc         1 A1A       0.038867
     54 H6          12.2840   -11.3370    14.5380 hc         1 A1A       0.038867
     55 H3          12.9250    -9.0440    11.5000 hc         1 A1A       0.038867
     56 H2          13.5870    -9.4660    13.0940 hc         1 A1A       0.038867
     57 H4          13.5810   -10.6610    11.7800 hc         1 A1A       0.038867
     58 H9           9.0810   -10.4780    13.1410 hn         1 A1A       0.499000
     59 H21          6.8850   -11.2420    13.0680 ha         1 A1A       0.202000
     60 H18         -1.4990   -11.5320    14.5940 hc         1 A1A       0.046700
     61 H19         -0.0770   -10.5270    14.9170 hc         1 A1A       0.046700
     62 H17         -0.4990   -10.9540    13.2520 hc         1 A1A       0.046700
     63 H20          0.8830   -14.6230    11.8050 hn         1 A1A       0.174000
     64 H11          5.2310   -12.2610    11.9870 ha         1 A1A       0.122000
     65 C15          0.4290   -13.1160    15.8440 c3         1 A1A      -0.071100
     66 O2           7.7660    -6.8250     9.1370 o          1 A1A      -0.523500
     67 H15         -0.5810   -13.3610    16.1950 hc         1 A1A       0.046700
     68 H14          1.0420   -14.0220    15.9370 hc         1 A1A       0.046700
     69 H16          0.8460   -12.3640    16.5250 hc         1 A1A       0.046700
@<TRIPOS>BOND
     1     1     3 ar  
     2     1     4 ar  
     3     2     5 1   
     4     2     6 1   
     5     2    37 1   
     6     3    26 1   
     7     3    27 ar  
     8     4    28 ar  
     9     4    38 1   
    10     5    27 ar  
    11     5    28 ar  
    12     6     7 1   
    13     6    29 2   
    14     7     9 ar  
    15     7    36 ar  
    16     8    35 ar  
    17     8    36 ar  
    18     8    39 1   
    19     9    30 ar  
    20     9    40 1   
    21    10    31 1   
    22    10    33 2   
    23    10    34 1   
    24    11    12 ar  
    25    11    21 ar  
    26    11    22 1   
    27    12    13 ar  
    28    12    41 1   
    29    13    20 ar  
    30    13    42 1   
    31    14    17 1   
    32    14    20 ar  
    33    14    21 ar  
    34    15    17 1   
    35    15    19 1   
    36    15    43 1   
    37    15    44 1   
    38    16    19 1   
    39    16    20 1   
    40    16    45 1   
    41    16    46 1   
    42    17    18 2   
    43    17    66 2   
    44    19    47 1   
    45    19    48 1   
    46    21    49 1   
    47    22    23 1   
    48    22    26 1   
    49    22    50 1   
    50    23    24 1   
    51    23    25 1   
    52    23    51 1   
    53    24    52 1   
    54    24    53 1   
    55    24    54 1   
    56    25    55 1   
    57    25    56 1   
    58    25    57 1   
    59    26    58 1   
    60    27    29 1   
    61    29    59 1   
    62    30    31 1   
    63    30    35 ar  
    64    31    32 1   
    65    31    65 1   
    66    32    60 1   
    67    32    61 1   
    68    32    62 1   
    69    34    35 1   
    70    34    63 1   
    71    36    64 1   
    72    65    67 1   
    73    65    68 1   
    74    65    69 1   
@<TRIPOS>SUBSTRUCTURE
     1 A1A         1 TEMP              0 ****  ****    0 ROOT
