@<TRIPOS>MOLECULE
A1A
   55    59     1     0     0
SMALL
No Charge or Current Charge


@<TRIPOS>ATOM
      1 N1         -10.2600    -6.3670    18.9250 nb         1 A1A      -0.307000
      2 N3         -14.0240    -7.6780    19.9670 na         1 A1A      -0.308400
      3 C4         -10.7960    -7.5220    18.4850 ca         1 A1A       0.444900
      4 C5         -11.0300    -5.6230    19.7570 ca         1 A1A       0.184900
      5 C6         -12.7970    -7.0740    19.7350 ca         1 A1A       0.156500
      6 C7         -14.1180    -8.8960    19.2710 cc         1 A1A      -0.000300
      7 C8         -15.2620    -9.7710    19.2980 cc         1 A1A      -0.084800
      8 C13        -12.9160    -9.0340    18.5990 cd         1 A1A      -0.178200
      9 C15         -8.6000    -8.5120    15.6990 ca         1 A1A      -0.089300
     10 C17         -8.7230   -10.1780    13.9060 ca         1 A1A      -0.101000
     11 C20         -8.3440    -7.5110    14.7370 ca         1 A1A      -0.109000
     12 C21         -7.9130    -7.1370    11.0410 c          1 A1A       0.542000
     13 C22         -8.6510    -8.4340    10.6520 c6         1 A1A       0.072600
     14 O           -7.2840    -6.4430    10.2490 o          1 A1A      -0.527000
     15 O1          -8.4100    -9.5020    11.6130 os         1 A1A      -0.325100
     16 C18         -8.4800    -9.1770    12.9560 ca         1 A1A       0.083100
     17 C16         -8.7900    -9.8470    15.2720 ca         1 A1A      -0.105000
     18 N7          -7.9700    -6.8770    12.3920 ns         1 A1A      -0.142000
     19 C19         -8.2840    -7.8430    13.3730 ca         1 A1A      -0.080000
     20 C3          -8.6650    -8.1390    17.1850 c3         1 A1A       0.285800
     21 C1          -7.6680    -8.9580    18.0700 c3         1 A1A      -0.068700
     22 C2          -6.2190    -8.8930    17.5220 c3         1 A1A      -0.088100
     23 C           -7.6860    -8.5230    19.5580 c3         1 A1A      -0.088100
     24 N          -10.0550    -8.3240    17.6300 nu         1 A1A      -0.918100
     25 C14        -12.0840    -7.8880    18.8890 ca         1 A1A      -0.265800
     26 N2         -12.2810    -5.9180    20.1890 nb         1 A1A      -0.233000
     27 C11        -15.4330   -10.9670    18.6540 cd         1 A1A      -0.083000
     28 C12        -14.5790   -11.7030    17.7870 ch         1 A1A       0.345000
     29 N6         -13.8990   -12.3280    17.0740 n1         1 A1A      -0.430000
     30 N5         -16.7190   -11.3850    19.0290 na         1 A1A       0.165800
     31 N4         -17.3510   -10.4880    19.8850 nd         1 A1A      -0.490800
     32 C9         -16.4460    -9.5410    20.0180 cc         1 A1A       0.233900
     33 H1         -14.7440    -7.2840    20.5590 hn         1 A1A       0.364000
     34 H10        -10.5990    -4.6900    20.1150 h5         1 A1A       0.044100
     35 H14        -18.3980   -12.6730    19.0680 h1         1 A1A       0.068367
     36 H13        -17.5050   -12.6310    17.5200 h1         1 A1A       0.068367
     37 H12        -16.8140   -13.4900    18.9300 h1         1 A1A       0.068367
     38 H15        -12.6370    -9.8650    17.9600 ha         1 A1A       0.206000
     39 H17         -8.8650   -11.2070    13.5860 ha         1 A1A       0.133000
     40 H18         -8.1850    -6.4810    15.0490 ha         1 A1A       0.126000
     41 H20         -9.7240    -8.2040    10.6300 h1         1 A1A       0.085200
     42 H21         -8.3230    -8.7460     9.6520 h1         1 A1A       0.085200
     43 H16         -8.9870   -10.6330    15.9970 ha         1 A1A       0.117000
     44 H19         -7.5560    -6.0110    12.7140 hn         1 A1A       0.166000
     45 H           -8.3850    -7.0780    17.2660 h1         1 A1A       0.095700
     46 H5          -7.9740   -10.0110    18.0440 hc         1 A1A       0.043700
     47 H7          -6.1550    -9.3140    16.5110 hc         1 A1A       0.038533
     48 H6          -5.8630    -7.8570    17.4850 hc         1 A1A       0.038533
     49 H8          -5.5360    -9.4670    18.1600 hc         1 A1A       0.038533
     50 H2          -8.6700    -8.6930    20.0100 hc         1 A1A       0.038533
     51 H3          -6.9550    -9.0980    20.1400 hc         1 A1A       0.038533
     52 H4          -7.4390    -7.4590    19.6570 hc         1 A1A       0.038533
     53 H9         -10.5490    -9.1340    17.2670 hn         1 A1A       0.495000
     54 H11        -16.6750    -8.6910    20.6480 h4         1 A1A       0.045100
     55 C10        -17.4020   -12.6210    18.6110 c3         1 A1A       0.065900
@<TRIPOS>BOND
     1     1     3 ar  
     2     1     4 ar  
     3     2     5 1   
     4     2     6 1   
     5     2    33 1   
     6     3    24 1   
     7     3    25 ar  
     8     4    26 ar  
     9     4    34 1   
    10     5    25 ar  
    11     5    26 ar  
    12     6     7 1   
    13     6     8 2   
    14     7    27 2   
    15     7    32 1   
    16     8    25 1   
    17     8    38 1   
    18     9    11 ar  
    19     9    17 ar  
    20     9    20 1   
    21    10    16 ar  
    22    10    17 ar  
    23    10    39 1   
    24    11    19 ar  
    25    11    40 1   
    26    12    13 1   
    27    12    14 2   
    28    12    18 1   
    29    13    15 1   
    30    13    41 1   
    31    13    42 1   
    32    15    16 1   
    33    16    19 ar  
    34    17    43 1   
    35    18    19 1   
    36    18    44 1   
    37    20    21 1   
    38    20    24 1   
    39    20    45 1   
    40    21    22 1   
    41    21    23 1   
    42    21    46 1   
    43    22    47 1   
    44    22    48 1   
    45    22    49 1   
    46    23    50 1   
    47    23    51 1   
    48    23    52 1   
    49    24    53 1   
    50    27    28 1   
    51    27    30 1   
    52    28    29 3   
    53    30    31 1   
    54    30    55 1   
    55    31    32 2   
    56    32    54 1   
    57    35    55 1   
    58    36    55 1   
    59    37    55 1   
@<TRIPOS>SUBSTRUCTURE
     1 A1A         1 TEMP              0 ****  ****    0 ROOT
