@<TRIPOS>MOLECULE
A1A
   18    19     1     0     0
SMALL
No Charge or Current Charge


@<TRIPOS>ATOM
      1 N1          28.0120    21.5390    18.8300 nc         1 A1A      -0.337000
      2 C4          31.3840    24.9360    17.5530 ca         1 A1A      -0.117500
      3 C5          32.2400    23.9680    17.0050 ca         1 A1A      -0.087000
      4 C6          31.8680    22.6150    17.0270 ca         1 A1A      -0.117500
      5 C7          30.6420    22.2280    17.5950 ca         1 A1A      -0.069000
      6 N           26.7880    21.6540    19.4570 nc         1 A1A      -0.443000
      7 C           26.6680    22.9460    19.6750 cd         1 A1A       0.650300
      8 O           25.6280    23.5360    20.2690 oh         1 A1A      -0.609300
      9 C1          28.4800    22.7830    18.7470 cd         1 A1A       0.476500
     10 C2          29.7700    23.1930    18.1500 ca         1 A1A      -0.141500
     11 C3          30.1560    24.5530    18.1220 ca         1 A1A      -0.069000
     12 O1          27.6720    23.7380    19.2680 os         1 A1A      -0.276000
     13 H3          33.1900    24.2660    16.5650 ha         1 A1A       0.117000
     14 H4          32.5310    21.8630    16.6030 ha         1 A1A       0.120000
     15 H5          30.3730    21.1730    17.6010 ha         1 A1A       0.133000
     16 H           25.0390    22.7820    20.4720 ho         1 A1A       0.517000
     17 H1          29.5090    25.3220    18.5400 ha         1 A1A       0.133000
     18 H2          31.6710    25.9850    17.5370 ha         1 A1A       0.120000
@<TRIPOS>BOND
     1     1     6 1   
     2     1     9 2   
     3     2     3 ar  
     4     2    11 ar  
     5     2    18 1   
     6     3     4 ar  
     7     3    13 1   
     8     4     5 ar  
     9     4    14 1   
    10     5    10 ar  
    11     5    15 1   
    12     6     7 2   
    13     7     8 1   
    14     7    12 1   
    15     8    16 1   
    16     9    10 1   
    17     9    12 1   
    18    10    11 ar  
    19    11    17 1   
@<TRIPOS>SUBSTRUCTURE
     1 A1A         1 TEMP              0 ****  ****    0 ROOT
