@<TRIPOS>MOLECULE
A1A
   54    57     1     0     0
SMALL
abcg2


@<TRIPOS>ATOM
      1 N1         -10.0870    -8.6340    18.1730 nu         1 A1A      -0.912100
      2 N3         -12.8320    -5.5660    18.5670 nb         1 A1A      -0.240000
      3 C4         -13.1210    -9.1020    18.9310 cc         1 A1A      -0.120200
      4 C5         -12.3420    -7.9500    18.6550 ca         1 A1A      -0.279800
      5 C6         -11.0030    -7.6660    18.3010 ca         1 A1A       0.445900
      6 C7          -8.7360    -8.4160    17.6900 c3         1 A1A       0.291800
      7 C8          -8.7150    -8.1920    16.1940 ca         1 A1A      -0.099300
      8 C10         -8.0390    -6.8960    14.2740 ca         1 A1A      -0.111000
      9 C13         -9.3090    -9.1110    15.3380 ca         1 A1A      -0.100000
     10 C15         -9.4970    -8.3750    11.3290 c6         1 A1A       0.117600
     11 C20        -13.1850    -6.8400    18.7680 ca         1 A1A       0.162500
     12 O          -15.4680   -10.7310    19.3650 o          1 A1A      -0.593100
     13 N          -16.6230    -8.9160    20.0600 ns         1 A1A      -0.506900
     14 C1         -17.8170    -9.6420    20.4480 c3         1 A1A       0.103000
     15 C          -17.7480   -10.2140    21.8550 c3         1 A1A      -0.118100
     16 C3         -14.3890    -8.6610    19.2050 cd         1 A1A      -0.171300
     17 N4         -14.4150    -7.2840    19.1090 na         1 A1A      -0.311400
     18 C19        -11.5610    -5.4410    18.2470 ca         1 A1A       0.190900
     19 N2         -10.6430    -6.3970    18.1040 nb         1 A1A      -0.298000
     20 C16         -7.8500    -9.5950    18.1300 c3         1 A1A      -0.069700
     21 C18         -7.8110    -9.7110    19.6510 c3         1 A1A      -0.088100
     22 C12         -9.2740    -8.9340    13.9630 ca         1 A1A       0.054100
     23 O1          -9.8590    -9.8690    13.1750 os         1 A1A      -0.330100
     24 C14         -9.4710    -9.8060    11.8130 c6         1 A1A       0.117600
     25 O2          -8.5960    -7.5840    12.0860 os         1 A1A      -0.329100
     26 C11         -8.6390    -7.8100    13.4210 ca         1 A1A       0.062100
     27 C9          -8.0740    -7.0870    15.6480 ca         1 A1A      -0.083000
     28 H9         -10.4080    -9.5880    18.2350 hn         1 A1A       0.496000
     29 H8         -12.8010   -10.1320    18.9460 ha         1 A1A       0.218000
     30 H           -8.3510    -7.5130    18.1740 h1         1 A1A       0.085700
     31 H11         -7.5500    -6.0260    13.8530 ha         1 A1A       0.128000
     32 H12         -9.8140    -9.9880    15.7300 ha         1 A1A       0.122000
     33 H16         -9.1800    -8.3190    10.2880 h1         1 A1A       0.067200
     34 H15        -10.5110    -7.9680    11.4020 h1         1 A1A       0.067200
     35 H18         -5.8080   -10.2680    17.9430 hc         1 A1A       0.038533
     36 H20         -6.4110    -9.4800    16.4890 hc         1 A1A       0.038533
     37 H19         -5.9820    -8.5150    17.9010 hc         1 A1A       0.038533
     38 H7         -16.5710    -7.9530    20.3470 hn         1 A1A       0.307500
     39 H6         -17.9920   -10.4350    19.7220 h1         1 A1A       0.054700
     40 H5         -18.6540    -8.9490    20.3650 h1         1 A1A       0.054700
     41 H3         -18.6810   -10.7210    22.1010 hc         1 A1A       0.043033
     42 H2         -16.9380   -10.9360    21.9510 hc         1 A1A       0.043033
     43 H4         -17.5920    -9.4250    22.5930 hc         1 A1A       0.043033
     44 H1         -15.2250    -6.6860    19.1740 hn         1 A1A       0.359000
     45 H24        -11.2080    -4.4290    18.0730 h5         1 A1A       0.044100
     46 H17         -8.2870   -10.5150    17.7190 hc         1 A1A       0.046700
     47 H21         -7.1950   -10.5600    19.9520 hc         1 A1A       0.038533
     48 H22         -7.3750    -8.8130    20.0950 hc         1 A1A       0.038533
     49 H23         -8.7990    -9.8540    20.0880 hc         1 A1A       0.038533
     50 H14         -8.4700   -10.2320    11.6850 h1         1 A1A       0.066200
     51 H13        -10.1770   -10.4120    11.2470 h1         1 A1A       0.066200
     52 H10         -7.6030    -6.3600    16.2970 ha         1 A1A       0.122000
     53 C17         -6.4360    -9.4550    17.5780 c3         1 A1A      -0.088100
     54 C2         -15.5370    -9.5230    19.5530 c          1 A1A       0.637300
@<TRIPOS>BOND
     1     1     5 1   
     2     1     6 1   
     3     1    28 1   
     4     2    11 ar  
     5     2    18 ar  
     6     3     4 1   
     7     3    16 2   
     8     3    29 1   
     9     4     5 ar  
    10     4    11 ar  
    11     5    19 ar  
    12     6     7 1   
    13     6    20 1   
    14     6    30 1   
    15     7     9 ar  
    16     7    27 ar  
    17     8    26 ar  
    18     8    27 ar  
    19     8    31 1   
    20     9    22 ar  
    21     9    32 1   
    22    10    24 1   
    23    10    25 1   
    24    10    33 1   
    25    10    34 1   
    26    11    17 1   
    27    12    54 2   
    28    13    14 1   
    29    13    38 1   
    30    13    54 1   
    31    14    15 1   
    32    14    39 1   
    33    14    40 1   
    34    15    41 1   
    35    15    42 1   
    36    15    43 1   
    37    16    17 1   
    38    16    54 1   
    39    17    44 1   
    40    18    19 ar  
    41    18    45 1   
    42    20    21 1   
    43    20    46 1   
    44    20    53 1   
    45    21    47 1   
    46    21    48 1   
    47    21    49 1   
    48    22    23 1   
    49    22    26 ar  
    50    23    24 1   
    51    24    50 1   
    52    24    51 1   
    53    25    26 1   
    54    27    52 1   
    55    35    53 1   
    56    36    53 1   
    57    37    53 1   
@<TRIPOS>SUBSTRUCTURE
     1 A1A         1 TEMP              0 ****  ****    0 ROOT
