@<TRIPOS>MOLECULE
A1A
   18    19     1     0     0
SMALL
abcg2


@<TRIPOS>ATOM
      1 N1          28.0540    21.5590    18.8130 nc         1 A1A      -0.337000
      2 C4          31.3570    24.9190    17.5650 ca         1 A1A      -0.117500
      3 C5          32.2140    23.9710    17.0230 ca         1 A1A      -0.087000
      4 C6          31.8550    22.6280    17.0360 ca         1 A1A      -0.117500
      5 C7          30.6490    22.2340    17.5880 ca         1 A1A      -0.069000
      6 N           26.8340    21.6540    19.4380 nc         1 A1A      -0.443000
      7 C           26.6660    22.9080    19.6690 cd         1 A1A       0.650300
      8 O           25.6830    23.5480    20.2420 oh         1 A1A      -0.609300
      9 C1          28.5280    22.7480    18.7130 cd         1 A1A       0.476500
     10 C2          29.7870    23.1860    18.1360 ca         1 A1A      -0.141500
     11 C3          30.1470    24.5330    18.1220 ca         1 A1A      -0.069000
     12 O1          27.6780    23.6610    19.2460 os         1 A1A      -0.276000
     13 H3          33.1580    24.2760    16.5910 ha         1 A1A       0.117000
     14 H4          32.5180    21.8840    16.6150 ha         1 A1A       0.120000
     15 H5          30.3740    21.1880    17.5960 ha         1 A1A       0.133000
     16 H           24.9960    22.9280    20.5260 ho         1 A1A       0.517000
     17 H1          29.4940    25.2870    18.5410 ha         1 A1A       0.133000
     18 H2          31.6300    25.9650    17.5560 ha         1 A1A       0.120000
@<TRIPOS>BOND
     1     1     6 1   
     2     1     9 2   
     3     2     3 ar  
     4     2    11 ar  
     5     2    18 1   
     6     3     4 ar  
     7     3    13 1   
     8     4     5 ar  
     9     4    14 1   
    10     5    10 ar  
    11     5    15 1   
    12     6     7 2   
    13     7     8 1   
    14     7    12 1   
    15     8    16 1   
    16     9    10 1   
    17     9    12 1   
    18    10    11 ar  
    19    11    17 1   
@<TRIPOS>SUBSTRUCTURE
     1 A1A         1 TEMP              0 ****  ****    0 ROOT
