@<TRIPOS>MOLECULE
A1A
   58    62     1     0     0
SMALL
abcg2


@<TRIPOS>ATOM
      1 N1           8.4530    -7.9580    14.8860 nb         1 A1A      -0.304000
      2 N3           4.7250    -9.4060    14.9800 na         1 A1A      -0.314400
      3 C4           8.1010    -8.9630    14.0830 ca         1 A1A       0.438900
      4 C5           7.5370    -7.4410    15.7050 ca         1 A1A       0.179900
      5 C6           5.9370    -8.8060    15.0430 ca         1 A1A       0.151500
      6 C7           4.7560   -10.4150    14.0410 cc         1 A1A       0.003700
      7 C8           3.5930   -11.2430    13.7740 ca         1 A1A      -0.214800
      8 C10          1.4630   -12.8040    13.2570 ca         1 A1A       0.383900
      9 C13          6.7740    -9.4430    14.1210 ca         1 A1A      -0.254800
     10 C15         11.0650    -6.6610    12.9840 ca         1 A1A      -0.027000
     11 C17         10.9830    -5.5020    10.8560 ca         1 A1A       0.013700
     12 C20         10.8390    -5.3630     7.8670 c6         1 A1A      -0.306400
     13 C21         10.5190    -4.1580     8.7330 c6         1 A1A      -0.055400
     14 C22         11.2370    -4.2410    10.0720 c6         1 A1A      -0.050100
     15 S           10.1060    -6.8240     8.5750 sy         1 A1A       1.050500
     16 O           10.7460    -8.0130     8.0170 o          1 A1A      -0.523500
     17 C16         11.2500    -5.5200    12.2240 ca         1 A1A      -0.132000
     18 C18         10.5270    -6.6940    10.2950 ca         1 A1A      -0.247500
     19 C19         10.3270    -7.8440    11.0520 ca         1 A1A      -0.005000
     20 C14         10.6010    -7.8410    12.4100 ca         1 A1A      -0.107300
     21 C3          10.4140    -9.0900    13.2480 c3         1 A1A       0.290800
     22 C1          11.3060   -10.2560    12.7870 c3         1 A1A      -0.071700
     23 C2          11.1400   -11.4630    13.7070 c3         1 A1A      -0.088600
     24 C           12.7670    -9.8240    12.7410 c3         1 A1A      -0.088600
     25 N            9.0270    -9.5050    13.2750 nu         1 A1A      -0.924100
     26 N2           6.2770    -7.7960    15.8470 nb         1 A1A      -0.230000
     27 C12          6.0120   -10.4660    13.4910 cd         1 A1A      -0.194200
     28 C11          3.4030   -11.8810    12.5480 ca         1 A1A       0.167400
     29 N6           2.3700   -12.6520    12.2820 nb         1 A1A      -0.243500
     30 N5           0.4140   -13.6030    13.0060 nv         1 A1A      -1.061900
     31 N4           1.5330   -12.2360    14.4670 nb         1 A1A      -0.243500
     32 C9           2.5850   -11.4800    14.7080 ca         1 A1A       0.167400
     33 H1           3.9160    -9.1070    15.5020 hn         1 A1A       0.361000
     34 H10          7.8800    -6.6230    16.3300 h5         1 A1A       0.042100
     35 H16         11.2830    -6.6350    14.0440 ha         1 A1A       0.126000
     36 H19         11.9140    -5.5370     7.7930 h1         1 A1A       0.106200
     37 H20         10.4250    -5.2870     6.8600 h1         1 A1A       0.106200
     38 H22         10.8390    -3.2580     8.2060 hc         1 A1A       0.065700
     39 H21          9.4400    -4.0690     8.8730 hc         1 A1A       0.065700
     40 H23         12.3150    -4.1560     9.9010 hc         1 A1A       0.063700
     41 H24         10.9630    -3.3840    10.6890 hc         1 A1A       0.063700
     42 H17         11.6060    -4.6140    12.6990 ha         1 A1A       0.116000
     43 H18          9.9660    -8.7500    10.5770 ha         1 A1A       0.126000
     44 H           10.7040    -8.8470    14.2740 h1         1 A1A       0.082700
     45 H5          11.0000   -10.5470    11.7750 hc         1 A1A       0.050700
     46 H7          10.1220   -11.8510    13.7080 hc         1 A1A       0.038867
     47 H8          11.7980   -12.2730    13.3910 hc         1 A1A       0.038867
     48 H6          11.4000   -11.2050    14.7360 hc         1 A1A       0.038867
     49 H3          12.9430    -9.0290    12.0170 hc         1 A1A       0.038867
     50 H2          13.0970    -9.4650    13.7180 hc         1 A1A       0.038867
     51 H4          13.4030   -10.6650    12.4640 hc         1 A1A       0.038867
     52 H9           8.7300   -10.2130    12.6230 hn         1 A1A       0.499000
     53 H15          6.3460   -11.1750    12.7490 ha         1 A1A       0.202000
     54 H14          4.1230   -11.7480    11.7460 h4         1 A1A       0.023600
     55 H13         -0.3530   -13.6340    13.6550 hn         1 A1A       0.503000
     56 H12          0.2540   -13.9340    12.0710 hn         1 A1A       0.503000
     57 H11          2.6350   -11.0460    15.7020 h4         1 A1A       0.023600
     58 O1           8.6510    -6.7200     8.4620 o          1 A1A      -0.523500
@<TRIPOS>BOND
     1     1     3 ar  
     2     1     4 ar  
     3     2     5 1   
     4     2     6 1   
     5     2    33 1   
     6     3     9 ar  
     7     3    25 1   
     8     4    26 ar  
     9     4    34 1   
    10     5     9 ar  
    11     5    26 ar  
    12     6     7 1   
    13     6    27 2   
    14     7    28 ar  
    15     7    32 ar  
    16     8    29 ar  
    17     8    30 1   
    18     8    31 ar  
    19     9    27 1   
    20    10    17 ar  
    21    10    20 ar  
    22    10    35 1   
    23    11    14 1   
    24    11    17 ar  
    25    11    18 ar  
    26    12    13 1   
    27    12    15 1   
    28    12    36 1   
    29    12    37 1   
    30    13    14 1   
    31    13    38 1   
    32    13    39 1   
    33    14    40 1   
    34    14    41 1   
    35    15    16 2   
    36    15    18 1   
    37    15    58 2   
    38    17    42 1   
    39    18    19 ar  
    40    19    20 ar  
    41    19    43 1   
    42    20    21 1   
    43    21    22 1   
    44    21    25 1   
    45    21    44 1   
    46    22    23 1   
    47    22    24 1   
    48    22    45 1   
    49    23    46 1   
    50    23    47 1   
    51    23    48 1   
    52    24    49 1   
    53    24    50 1   
    54    24    51 1   
    55    25    52 1   
    56    27    53 1   
    57    28    29 ar  
    58    28    54 1   
    59    30    55 1   
    60    30    56 1   
    61    31    32 ar  
    62    32    57 1   
@<TRIPOS>SUBSTRUCTURE
     1 A1A         1 TEMP              0 ****  ****    0 ROOT
