@<TRIPOS>MOLECULE
A1A
   50    53     1     0     0
SMALL
No Charge or Current Charge


@<TRIPOS>ATOM
      1 N1           5.5500   -14.2900    15.7280 nb         1 A1A      -0.271000
      2 C4           6.0100   -15.3260    16.4530 ca         1 A1A       0.407900
      3 C5           6.4660   -13.5940    15.0270 ca         1 A1A       0.170900
      4 C6           8.2540   -14.8590    15.7120 ca         1 A1A       0.318300
      5 C7           7.3740   -15.6680    16.4730 ca         1 A1A      -0.145900
      6 C8           9.1900   -17.1920    16.9610 c6         1 A1A       0.116600
      7 C10          3.8280   -14.4310    18.4930 ca         1 A1A      -0.109300
      8 C13          3.9860   -12.1290    20.1500 ca         1 A1A       0.012700
      9 C15          4.5230   -14.4790    19.7170 ca         1 A1A      -0.005000
     10 C17          5.1110   -10.7600    22.0750 c6         1 A1A      -0.055400
     11 S            5.5270   -13.4840    22.0870 sy         1 A1A       1.048500
     12 O2           5.0120   -14.6450    22.8250 o          1 A1A      -0.523000
     13 C16          5.0930   -11.9920    23.0040 c6         1 A1A      -0.305400
     14 C18          3.9960   -10.8510    21.0080 c6         1 A1A      -0.049100
     15 C12          3.2910   -12.0920    18.9270 ca         1 A1A      -0.132000
     16 C11          3.2140   -13.2260    18.1030 ca         1 A1A      -0.030000
     17 C14          4.6040   -13.3420    20.5460 ca         1 A1A      -0.245500
     18 C3           3.7370   -15.6630    17.5890 c3         1 A1A       0.292800
     19 C1           2.9890   -16.8580    18.2580 c3         1 A1A      -0.071700
     20 C2           1.6080   -16.4390    18.8240 c3         1 A1A      -0.088100
     21 C            2.8210   -18.0620    17.2950 c3         1 A1A      -0.088100
     22 N            5.0940   -16.0650    17.1900 nu         1 A1A      -0.925100
     23 O            7.8400   -16.7460    17.2170 os         1 A1A      -0.327100
     24 C9          10.1180   -15.9710    16.7750 c6         1 A1A       0.118600
     25 O1           9.6100   -15.1190    15.7200 os         1 A1A      -0.427300
     26 N2           7.7950   -13.8240    14.9830 nb         1 A1A      -0.215000
     27 H9           6.0970   -12.7560    14.4380 h5         1 A1A       0.050100
     28 H10          9.5330   -17.8180    17.7970 h1         1 A1A       0.068200
     29 H11          9.1980   -17.8020    16.0470 h1         1 A1A       0.068200
     30 H16          5.0090   -15.4050    20.0210 ha         1 A1A       0.128000
     31 H19          4.9690    -9.8470    22.6700 hc         1 A1A       0.065200
     32 H20          6.0920   -10.6600    21.5880 hc         1 A1A       0.065200
     33 H18          4.0930   -12.1670    23.4200 h1         1 A1A       0.106200
     34 H17          5.8250   -11.9100    23.8170 h1         1 A1A       0.106200
     35 H21          3.0200   -10.7600    21.5050 hc         1 A1A       0.064200
     36 H22          4.0730    -9.9740    20.3510 hc         1 A1A       0.064200
     37 H15          2.8020   -11.1740    18.6090 ha         1 A1A       0.116000
     38 H14          2.6740   -13.1670    17.1610 ha         1 A1A       0.124000
     39 H            3.1680   -15.3900    16.6880 h1         1 A1A       0.079700
     40 H4           3.5900   -17.2040    19.1080 hc         1 A1A       0.052700
     41 H5           1.7120   -15.6750    19.6040 hc         1 A1A       0.038867
     42 H6           0.9680   -16.0350    18.0310 hc         1 A1A       0.038867
     43 H7           1.0960   -17.2980    19.2730 hc         1 A1A       0.038867
     44 H1           3.7930   -18.4450    16.9600 hc         1 A1A       0.038867
     45 H3           2.2950   -18.8860    17.7920 hc         1 A1A       0.038867
     46 H2           2.2430   -17.7740    16.4080 hc         1 A1A       0.038867
     47 H8           5.5190   -16.8380    17.6990 hn         1 A1A       0.511000
     48 H13         10.1590   -15.3970    17.7120 h1         1 A1A       0.074200
     49 H12         11.1380   -16.2950    16.5250 h1         1 A1A       0.074200
     50 O3           6.9560   -13.3990    21.7540 o          1 A1A      -0.523000
@<TRIPOS>BOND
     1     1     2 ar  
     2     1     3 ar  
     3     2     5 ar  
     4     2    22 1   
     5     3    26 ar  
     6     3    27 1   
     7     4     5 ar  
     8     4    25 1   
     9     4    26 ar  
    10     5    23 1   
    11     6    23 1   
    12     6    24 1   
    13     6    28 1   
    14     6    29 1   
    15     7     9 ar  
    16     7    16 ar  
    17     7    18 1   
    18     8    14 1   
    19     8    15 ar  
    20     8    17 ar  
    21     9    17 ar  
    22     9    30 1   
    23    10    13 1   
    24    10    14 1   
    25    10    31 1   
    26    10    32 1   
    27    11    12 2   
    28    11    13 1   
    29    11    17 1   
    30    11    50 2   
    31    13    33 1   
    32    13    34 1   
    33    14    35 1   
    34    14    36 1   
    35    15    16 ar  
    36    15    37 1   
    37    16    38 1   
    38    18    19 1   
    39    18    22 1   
    40    18    39 1   
    41    19    20 1   
    42    19    21 1   
    43    19    40 1   
    44    20    41 1   
    45    20    42 1   
    46    20    43 1   
    47    21    44 1   
    48    21    45 1   
    49    21    46 1   
    50    22    47 1   
    51    24    25 1   
    52    24    48 1   
    53    24    49 1   
@<TRIPOS>SUBSTRUCTURE
     1 A1A         1 TEMP              0 ****  ****    0 ROOT
