@<TRIPOS>MOLECULE
A1A
   30    31     1     0     0
SMALL
No Charge or Current Charge


@<TRIPOS>ATOM
      1 C4          28.1650    22.5270    17.6270 c3         1 A1A      -0.028100
      2 C5          27.5530    22.3660    19.0500 c6         1 A1A      -0.061700
      3 C6          26.0980    21.8260    18.9810 c6         1 A1A      -0.072400
      4 C7          25.4860    21.7160    20.3990 c6         1 A1A      -0.073400
      5 C8          25.5900    23.0640    21.1540 c6         1 A1A       0.159800
      6 C10         30.6360    22.0530    18.0000 ca         1 A1A      -0.083000
      7 N           26.9910    23.5430    21.2040 n7         1 A1A      -0.863400
      8 C           32.3230    23.7700    17.6590 ca         1 A1A       0.167000
      9 C1          31.3240    24.6850    17.2920 ca         1 A1A      -0.150000
     10 C11         31.9830    22.4550    18.0120 ca         1 A1A      -0.150000
     11 C2          29.9770    24.2840    17.2790 ca         1 A1A      -0.083000
     12 C3          29.6260    22.9650    17.6340 ca         1 A1A      -0.091300
     13 C9          27.5960    23.6960    19.8570 c6         1 A1A       0.162800
     14 H2          27.5640    23.2390    17.0480 hc         1 A1A       0.048200
     15 H3          28.0850    21.5750    17.0880 hc         1 A1A       0.048200
     16 H4          28.1710    21.6260    19.5760 hc         1 A1A       0.063700
     17 H5          25.4790    22.4950    18.3660 hc         1 A1A       0.037200
     18 H6          26.0800    20.8430    18.4910 hc         1 A1A       0.037200
     19 H8          24.4340    21.4080    20.3310 hc         1 A1A       0.046700
     20 H7          26.0060    20.9340    20.9680 hc         1 A1A       0.046700
     21 H10         24.9650    23.8160    20.6490 h1         1 A1A       0.027700
     22 H9          25.2050    22.9440    22.1770 h1         1 A1A       0.027700
     23 H14         30.3760    21.0320    18.2750 ha         1 A1A       0.115500
     24 H11         27.0130    24.4530    21.6820 hn         1 A1A       0.412000
     25 H           31.5950    25.7020    17.0200 ha         1 A1A       0.131000
     26 H15         32.7620    21.7510    18.2950 ha         1 A1A       0.131000
     27 H1          29.2070    24.9990    16.9960 ha         1 A1A       0.115500
     28 H13         27.0570    24.4790    19.3030 h1         1 A1A       0.030700
     29 H12         28.6390    24.0300    19.9700 h1         1 A1A       0.030700
     30 F           33.6170    24.1560    17.6710 f          1 A1A      -0.181000
@<TRIPOS>BOND
     1     1     2 1   
     2     1    12 1   
     3     1    14 1   
     4     1    15 1   
     5     2     3 1   
     6     2    13 1   
     7     2    16 1   
     8     3     4 1   
     9     3    17 1   
    10     3    18 1   
    11     4     5 1   
    12     4    19 1   
    13     4    20 1   
    14     5     7 1   
    15     5    21 1   
    16     5    22 1   
    17     6    10 ar  
    18     6    12 ar  
    19     6    23 1   
    20     7    13 1   
    21     7    24 1   
    22     8     9 ar  
    23     8    10 ar  
    24     8    30 1   
    25     9    11 ar  
    26     9    25 1   
    27    10    26 1   
    28    11    12 ar  
    29    11    27 1   
    30    13    28 1   
    31    13    29 1   
@<TRIPOS>SUBSTRUCTURE
     1 A1A         1 TEMP              0 ****  ****    0 ROOT
