@<TRIPOS>MOLECULE
A1A
   57    60     1     0     0
SMALL
abcg2


@<TRIPOS>ATOM
      1 N1         -10.1680    -8.9020    18.4840 nu         1 A1A      -0.914100
      2 N3          -8.2190    -8.6820    10.3550 ns         1 A1A      -0.408400
      3 C4         -13.0800    -9.3480    19.6510 cc         1 A1A      -0.123200
      4 C5         -12.4550    -8.2980    18.9300 ca         1 A1A      -0.278800
      5 C6         -11.1830    -8.0350    18.3710 ca         1 A1A       0.445900
      6 C7          -8.8760    -8.7250    17.8490 c3         1 A1A       0.289800
      7 C8          -8.9450    -9.0030    16.3630 ca         1 A1A      -0.100300
      8 C10         -9.5410   -10.5010    14.5450 ca         1 A1A      -0.070000
      9 C13         -7.6090    -7.6570     9.6830 c          1 A1A       0.608100
     10 C15         -8.4410    -8.4020    14.1070 ca         1 A1A      -0.226000
     11 C17         -7.8330    -9.6070    18.5600 c3         1 A1A      -0.070700
     12 C20        -11.9970    -6.0210    17.6320 ca         1 A1A       0.191900
     13 C21        -13.4090    -7.2900    18.7540 ca         1 A1A       0.162500
     14 O1          -7.1590    -6.6990    10.2790 o          1 A1A      -0.560100
     15 C14         -7.5620    -7.8320     8.1940 c3         1 A1A      -0.175100
     16 C12         -8.3860    -8.7470    11.7110 cc         1 A1A       0.444800
     17 N2          -8.9540    -9.7590    12.2700 nd         1 A1A      -0.608100
     18 S           -7.8390    -7.4660    12.7710 ss         1 A1A       0.121800
     19 C11         -9.0000    -9.5950    13.6330 ca         1 A1A       0.127400
     20 C9          -9.5070   -10.1980    15.8920 ca         1 A1A      -0.097000
     21 C16         -8.4130    -8.0950    15.4610 ca         1 A1A      -0.038000
     22 C19         -7.7210    -9.2420    20.0370 c3         1 A1A      -0.088600
     23 C18         -6.4700    -9.4870    17.8860 c3         1 A1A      -0.088600
     24 N4         -10.9860    -6.8850    17.7260 nb         1 A1A      -0.298000
     25 N5         -13.2200    -6.1380    18.1040 nb         1 A1A      -0.239000
     26 N6         -14.5540    -7.6910    19.3510 na         1 A1A      -0.311400
     27 C3         -14.3650    -8.9450    19.8950 cd         1 A1A      -0.169300
     28 C2         -15.3840    -9.7120    20.6410 c          1 A1A       0.636300
     29 O          -15.2480   -10.9180    20.7960 o          1 A1A      -0.590100
     30 N          -16.4350    -9.0180    21.1140 ns         1 A1A      -0.506900
     31 C1         -17.5000    -9.6360    21.8780 c3         1 A1A       0.102000
     32 C          -17.1730    -9.7910    23.3560 c3         1 A1A      -0.118100
     33 H9         -10.3650    -9.7980    18.9020 hn         1 A1A       0.496000
     34 H12         -8.5760    -9.4750     9.8380 hn         1 A1A       0.340500
     35 H8         -12.6440   -10.2800    19.9770 ha         1 A1A       0.216000
     36 H           -8.5750    -7.6830    17.9880 h1         1 A1A       0.084700
     37 H11         -9.9780   -11.4280    14.1940 ha         1 A1A       0.130000
     38 H17         -8.1630   -10.6500    18.4790 hc         1 A1A       0.046700
     39 H24        -11.7760    -5.1050    17.0940 h5         1 A1A       0.045100
     40 H15         -7.0420    -6.9980     7.7330 hc         1 A1A       0.070700
     41 H13         -7.0540    -8.7610     7.9310 hc         1 A1A       0.070700
     42 H14         -8.5730    -7.8890     7.7880 hc         1 A1A       0.070700
     43 H10         -9.9290   -10.9030    16.5980 ha         1 A1A       0.110000
     44 H16         -7.9790    -7.1670    15.8130 ha         1 A1A       0.127000
     45 H21         -6.9700    -9.8650    20.5250 hc         1 A1A       0.038700
     46 H22         -7.4150    -8.2000    20.1550 hc         1 A1A       0.038700
     47 H23         -8.6570    -9.3780    20.5770 hc         1 A1A       0.038700
     48 H19         -5.7290   -10.0730    18.4300 hc         1 A1A       0.038700
     49 H18         -6.4830    -9.8440    16.8570 hc         1 A1A       0.038700
     50 H20         -6.1280    -8.4490    17.8770 hc         1 A1A       0.038700
     51 H1         -15.4240    -7.1850    19.2920 hn         1 A1A       0.360000
     52 H7         -16.4070    -8.0110    21.1170 hn         1 A1A       0.308500
     53 H6         -17.7300   -10.6050    21.4360 h1         1 A1A       0.054700
     54 H5         -18.3860    -9.0140    21.7540 h1         1 A1A       0.054700
     55 H3         -18.0200   -10.2310    23.8840 hc         1 A1A       0.043700
     56 H2         -16.3110   -10.4410    23.5040 hc         1 A1A       0.043700
     57 H4         -16.9580    -8.8260    23.8140 hc         1 A1A       0.043700
@<TRIPOS>BOND
     1     1     5 1   
     2     1     6 1   
     3     1    33 1   
     4     2     9 1   
     5     2    16 1   
     6     2    34 1   
     7     3     4 1   
     8     3    27 2   
     9     3    35 1   
    10     4     5 ar  
    11     4    13 ar  
    12     5    24 ar  
    13     6     7 1   
    14     6    11 1   
    15     6    36 1   
    16     7    20 ar  
    17     7    21 ar  
    18     8    19 ar  
    19     8    20 ar  
    20     8    37 1   
    21     9    14 2   
    22     9    15 1   
    23    10    18 1   
    24    10    19 ar  
    25    10    21 ar  
    26    11    22 1   
    27    11    23 1   
    28    11    38 1   
    29    12    24 ar  
    30    12    25 ar  
    31    12    39 1   
    32    13    25 ar  
    33    13    26 1   
    34    15    40 1   
    35    15    41 1   
    36    15    42 1   
    37    16    17 2   
    38    16    18 1   
    39    17    19 1   
    40    20    43 1   
    41    21    44 1   
    42    22    45 1   
    43    22    46 1   
    44    22    47 1   
    45    23    48 1   
    46    23    49 1   
    47    23    50 1   
    48    26    27 1   
    49    26    51 1   
    50    27    28 1   
    51    28    29 2   
    52    28    30 1   
    53    30    31 1   
    54    30    52 1   
    55    31    32 1   
    56    31    53 1   
    57    31    54 1   
    58    32    55 1   
    59    32    56 1   
    60    32    57 1   
@<TRIPOS>SUBSTRUCTURE
     1 A1A         1 TEMP              0 ****  ****    0 ROOT
