@<TRIPOS>MOLECULE
A1A
   64    68     1     0     0
SMALL
No Charge or Current Charge


@<TRIPOS>ATOM
      1 N1          -9.7880    -6.4410    18.8440 nb         1 A1A      -0.302000
      2 N3         -13.6100    -7.2220    20.1610 na         1 A1A      -0.309400
      3 C4         -10.2580    -7.6810    19.0840 ca         1 A1A       0.445900
      4 C5         -10.6520    -5.4190    19.0570 ca         1 A1A       0.190900
      5 C6         -12.3790    -6.7610    19.7220 ca         1 A1A       0.163500
      6 C7         -13.6270    -8.6400    20.2650 cc         1 A1A      -0.170300
      7 C8         -14.6830    -9.6030    20.6810 c          1 A1A       0.645300
      8 C10        -18.4060    -8.9900    21.6830 cy         1 A1A       0.125300
      9 C13        -12.3510    -9.0170    19.8700 cd         1 A1A      -0.117200
     10 C15         -8.3090    -8.4280    16.7270 ca         1 A1A      -0.109300
     11 C17         -7.8840    -6.9710    14.8180 ca         1 A1A      -0.132000
     12 C20         -9.0910    -9.2560    15.8980 ca         1 A1A      -0.006000
     13 C21         -9.9800    -9.5470    11.8430 c6         1 A1A      -0.306400
     14 C22         -9.9710    -8.0080    11.7250 c6         1 A1A      -0.055400
     15 S          -10.2970   -10.0500    13.5460 sy         1 A1A       1.053500
     16 O1          -9.8000   -11.4210    13.7210 o          1 A1A      -0.523000
     17 C23         -8.7790    -7.3980    12.4970 c6         1 A1A      -0.049100
     18 C18         -8.6650    -7.7910    13.9810 ca         1 A1A       0.013700
     19 C16         -7.7090    -7.2810    16.1760 ca         1 A1A      -0.028000
     20 C19         -9.2700    -8.9480    14.5330 ca         1 A1A      -0.247500
     21 C3          -8.1080    -8.7600    18.2080 c3         1 A1A       0.290800
     22 C1          -7.3750   -10.1190    18.4350 c3         1 A1A      -0.072700
     23 C2          -7.0880   -10.3900    19.9350 c3         1 A1A      -0.088600
     24 C           -6.0590   -10.2160    17.6210 c3         1 A1A      -0.088600
     25 N           -9.4160    -8.7630    18.8810 nu         1 A1A      -0.918100
     26 C14        -11.5710    -7.8510    19.5320 ca         1 A1A      -0.276800
     27 N2         -11.9350    -5.5130    19.4870 nb         1 A1A      -0.236000
     28 O          -14.5270   -10.8160    20.7140 o          1 A1A      -0.583100
     29 N4         -15.8720    -9.0040    21.0310 ns         1 A1A      -0.495900
     30 C9         -17.0430    -9.7350    21.4610 cy         1 A1A       0.076700
     31 C12        -17.8780   -10.5760    20.4320 cy         1 A1A       0.125300
     32 N5         -19.0220   -10.3100    21.3550 nq         1 A1A      -0.704600
     33 C11        -20.4140   -10.4090    20.9080 c3         1 A1A       0.151100
     34 H1         -14.3850    -6.6040    20.3740 hn         1 A1A       0.360000
     35 H10        -10.2770    -4.4150    18.8620 h5         1 A1A       0.043100
     36 H13        -18.5690    -8.6200    22.7020 h1         1 A1A       0.051950
     37 H14        -18.5980    -8.1920    20.9530 h1         1 A1A       0.051950
     38 H20        -12.0070   -10.0490    19.8270 ha         1 A1A       0.219000
     39 H22         -7.4030    -6.0840    14.4120 ha         1 A1A       0.116000
     40 H23         -9.5660   -10.1400    16.3190 ha         1 A1A       0.128000
     41 H25         -9.0080    -9.9760    11.5720 h1         1 A1A       0.106700
     42 H24        -10.7710   -10.0050    11.2370 h1         1 A1A       0.106700
     43 H27         -9.9030    -7.7190    10.6670 hc         1 A1A       0.065700
     44 H26        -10.9170    -7.5880    12.0980 hc         1 A1A       0.065700
     45 H28         -7.8460    -7.6800    11.9920 hc         1 A1A       0.063700
     46 H29         -8.8370    -6.3040    12.4160 hc         1 A1A       0.063700
     47 H21         -7.1020    -6.6280    16.7990 ha         1 A1A       0.123000
     48 H           -7.4780    -7.9770    18.6560 h1         1 A1A       0.082700
     49 H5          -8.0300   -10.9240    18.0780 hc         1 A1A       0.051700
     50 H6          -8.0160   -10.4300    20.5190 hc         1 A1A       0.039700
     51 H7          -6.5760   -11.3510    20.0650 hc         1 A1A       0.039700
     52 H8          -6.4510    -9.6040    20.3580 hc         1 A1A       0.039700
     53 H3          -6.2510   -10.1560    16.5430 hc         1 A1A       0.039700
     54 H2          -5.3720    -9.4060    17.8930 hc         1 A1A       0.039700
     55 H4          -5.5540   -11.1710    17.8120 hc         1 A1A       0.039700
     56 H9          -9.8140    -9.6670    19.1150 hn         1 A1A       0.501000
     57 H11        -15.9010    -7.9960    20.9730 hn         1 A1A       0.307500
     58 H12        -16.7630   -10.3320    22.3380 h1         1 A1A       0.109700
     59 H19        -17.5680   -11.6230    20.3340 h1         1 A1A       0.051950
     60 H18        -17.9580   -10.1090    19.4420 h1         1 A1A       0.051950
     61 H15        -20.6440   -11.4480    20.6380 h1         1 A1A       0.033700
     62 H17        -21.0870   -10.0910    21.7150 h1         1 A1A       0.033700
     63 H16        -20.5750    -9.7660    20.0320 h1         1 A1A       0.033700
     64 O2         -11.7000    -9.7330    13.8470 o          1 A1A      -0.523000
@<TRIPOS>BOND
     1     1     3 ar  
     2     1     4 ar  
     3     2     5 1   
     4     2     6 1   
     5     2    34 1   
     6     3    25 1   
     7     3    26 ar  
     8     4    27 ar  
     9     4    35 1   
    10     5    26 ar  
    11     5    27 ar  
    12     6     7 1   
    13     6     9 2   
    14     7    28 2   
    15     7    29 1   
    16     8    30 1   
    17     8    32 1   
    18     8    36 1   
    19     8    37 1   
    20     9    26 1   
    21     9    38 1   
    22    10    12 ar  
    23    10    19 ar  
    24    10    21 1   
    25    11    18 ar  
    26    11    19 ar  
    27    11    39 1   
    28    12    20 ar  
    29    12    40 1   
    30    13    14 1   
    31    13    15 1   
    32    13    41 1   
    33    13    42 1   
    34    14    17 1   
    35    14    43 1   
    36    14    44 1   
    37    15    16 2   
    38    15    20 1   
    39    15    64 2   
    40    17    18 1   
    41    17    45 1   
    42    17    46 1   
    43    18    20 ar  
    44    19    47 1   
    45    21    22 1   
    46    21    25 1   
    47    21    48 1   
    48    22    23 1   
    49    22    24 1   
    50    22    49 1   
    51    23    50 1   
    52    23    51 1   
    53    23    52 1   
    54    24    53 1   
    55    24    54 1   
    56    24    55 1   
    57    25    56 1   
    58    29    30 1   
    59    29    57 1   
    60    30    31 1   
    61    30    58 1   
    62    31    32 1   
    63    31    59 1   
    64    31    60 1   
    65    32    33 1   
    66    33    61 1   
    67    33    62 1   
    68    33    63 1   
@<TRIPOS>SUBSTRUCTURE
     1 A1A         1 TEMP              0 ****  ****    0 ROOT
