@<TRIPOS>MOLECULE
A1A
   54    57     1     0     0
SMALL
No Charge or Current Charge


@<TRIPOS>ATOM
      1 N1          -9.9360    -8.4580    18.4060 nu         1 A1A      -0.912100
      2 N3         -12.7270    -5.3910    18.5700 nb         1 A1A      -0.240000
      3 C4         -12.9180    -8.9170    19.0110 cc         1 A1A      -0.120200
      4 C5         -12.2180    -7.6940    18.7430 ca         1 A1A      -0.279800
      5 C6         -10.8710    -7.4360    18.4630 ca         1 A1A       0.445900
      6 C7          -8.5860    -8.3900    17.8280 c3         1 A1A       0.291800
      7 C8          -8.7010    -8.1910    16.3120 ca         1 A1A      -0.099300
      8 C10         -8.2910    -6.8200    14.3270 ca         1 A1A      -0.111000
      9 C13         -9.3160    -9.1680    15.4970 ca         1 A1A      -0.100000
     10 C15         -9.9340    -8.4170    11.4280 c6         1 A1A       0.117600
     11 C20        -13.1170    -6.6600    18.7880 ca         1 A1A       0.162500
     12 O          -15.0780   -10.7960    19.6200 o          1 A1A      -0.593100
     13 N          -16.5580    -9.0600    19.6900 ns         1 A1A      -0.506900
     14 C1         -17.7570    -9.8310    20.0270 c3         1 A1A       0.103000
     15 C          -17.8140   -10.1870    21.5230 c3         1 A1A      -0.118100
     16 C3         -14.2490    -8.5780    19.2150 cd         1 A1A      -0.171300
     17 N4         -14.3750    -7.1640    19.0770 na         1 A1A      -0.311400
     18 C19        -11.4100    -5.2120    18.3070 ca         1 A1A       0.190900
     19 N2         -10.4580    -6.1730    18.2440 nb         1 A1A      -0.298000
     20 C16         -7.7580    -9.6550    18.2200 c3         1 A1A      -0.069700
     21 C18         -7.5770    -9.7880    19.7550 c3         1 A1A      -0.088100
     22 C12         -9.4100    -8.9770    14.1100 ca         1 A1A       0.054100
     23 O1          -9.9950    -9.9560    13.3300 os         1 A1A      -0.330100
     24 C14         -9.7900    -9.8800    11.9020 c6         1 A1A       0.117600
     25 O2          -9.0230    -7.5700    12.1640 os         1 A1A      -0.329100
     26 C11         -8.9100    -7.7890    13.5230 ca         1 A1A       0.062100
     27 C9          -8.1890    -7.0190    15.7150 ca         1 A1A      -0.083000
     28 H9         -10.3110    -9.3840    18.5840 hn         1 A1A       0.496000
     29 H8         -12.5120    -9.9270    19.0520 ha         1 A1A       0.218000
     30 H           -8.0580    -7.5210    18.2510 h1         1 A1A       0.085700
     31 H11         -7.9010    -5.9100    13.8770 ha         1 A1A       0.128000
     32 H12         -9.7160   -10.0770    15.9380 ha         1 A1A       0.122000
     33 H16         -9.7220    -8.3340    10.3530 h1         1 A1A       0.067200
     34 H15        -10.9630    -8.0740    11.6060 h1         1 A1A       0.067200
     35 H18         -5.8070   -10.5730    17.8240 hc         1 A1A       0.038533
     36 H20         -6.4790    -9.7170    16.4310 hc         1 A1A       0.038533
     37 H19         -5.7860    -8.7970    17.7840 hc         1 A1A       0.038533
     38 H7         -16.6440    -8.0590    19.5870 hn         1 A1A       0.307500
     39 H6         -17.7750   -10.7520    19.4280 h1         1 A1A       0.054700
     40 H5         -18.6420    -9.2380    19.7600 h1         1 A1A       0.054700
     41 H3         -18.7300   -10.7470    21.7450 hc         1 A1A       0.043033
     42 H2         -16.9560   -10.8050    21.8110 hc         1 A1A       0.043033
     43 H4         -17.8090    -9.2780    22.1370 hc         1 A1A       0.043033
     44 H1         -15.2170    -6.6060    19.1680 hn         1 A1A       0.359000
     45 H24        -11.0830    -4.1890    18.1290 h5         1 A1A       0.044100
     46 H17         -8.3070   -10.5410    17.8790 hc         1 A1A       0.046700
     47 H21         -6.9930   -10.6840    20.0000 hc         1 A1A       0.038533
     48 H22         -7.0520    -8.9160    20.1620 hc         1 A1A       0.038533
     49 H23         -8.5440    -9.8750    20.2650 hc         1 A1A       0.038533
     50 H14         -8.7810   -10.2440    11.6660 h1         1 A1A       0.066200
     51 H13        -10.5190   -10.5260    11.3940 h1         1 A1A       0.066200
     52 H10         -7.7140    -6.2560    16.3290 ha         1 A1A       0.122000
     53 C17         -6.3740    -9.6840    17.5220 c3         1 A1A      -0.088100
     54 C2         -15.3000    -9.5960    19.5240 c          1 A1A       0.637300
@<TRIPOS>BOND
     1     1     5 1   
     2     1     6 1   
     3     1    28 1   
     4     2    11 ar  
     5     2    18 ar  
     6     3     4 1   
     7     3    16 2   
     8     3    29 1   
     9     4     5 ar  
    10     4    11 ar  
    11     5    19 ar  
    12     6     7 1   
    13     6    20 1   
    14     6    30 1   
    15     7     9 ar  
    16     7    27 ar  
    17     8    26 ar  
    18     8    27 ar  
    19     8    31 1   
    20     9    22 ar  
    21     9    32 1   
    22    10    24 1   
    23    10    25 1   
    24    10    33 1   
    25    10    34 1   
    26    11    17 1   
    27    12    54 2   
    28    13    14 1   
    29    13    38 1   
    30    13    54 1   
    31    14    15 1   
    32    14    39 1   
    33    14    40 1   
    34    15    41 1   
    35    15    42 1   
    36    15    43 1   
    37    16    17 1   
    38    16    54 1   
    39    17    44 1   
    40    18    19 ar  
    41    18    45 1   
    42    20    21 1   
    43    20    46 1   
    44    20    53 1   
    45    21    47 1   
    46    21    48 1   
    47    21    49 1   
    48    22    23 1   
    49    22    26 ar  
    50    23    24 1   
    51    24    50 1   
    52    24    51 1   
    53    25    26 1   
    54    27    52 1   
    55    35    53 1   
    56    36    53 1   
    57    37    53 1   
@<TRIPOS>SUBSTRUCTURE
     1 A1A         1 TEMP              0 ****  ****    0 ROOT
