@<TRIPOS>MOLECULE
A1A
   56    59     1     0     0
SMALL
No Charge or Current Charge


@<TRIPOS>ATOM
      1 N1           9.4940    -9.7940    14.0400 nu         1 A1A      -0.916100
      2 N3           6.3060    -7.8720    15.8750 nb         1 A1A      -0.231000
      3 C4           8.4260    -9.1580    14.6550 ca         1 A1A       0.447900
      4 C5          10.8400    -9.2480    13.8110 c3         1 A1A       0.288800
      5 C6          10.7410    -8.0650    12.8430 ca         1 A1A      -0.108300
      6 C7          11.1590    -6.7860    13.2510 ca         1 A1A      -0.029000
      7 C8          11.0740    -5.6970    12.3690 ca         1 A1A      -0.130000
      8 C10         10.1430    -7.1440    10.6520 ca         1 A1A      -0.246500
      9 C13          9.5770    -4.6910     8.9420 c6         1 A1A      -0.056400
     10 C15         11.8050   -10.3680    13.3080 c3         1 A1A      -0.071700
     11 C17         13.1950    -9.8070    12.9120 c3         1 A1A      -0.088600
     12 S1           9.4640    -7.4420     9.0110 sy         1 A1A       1.049500
     13 O2           8.0020    -7.5090     9.1440 o          1 A1A      -0.524000
     14 C12          9.8580    -5.9440     8.0870 c6         1 A1A      -0.304400
     15 C14         10.5360    -4.6170    10.1530 c6         1 A1A      -0.050100
     16 C9          10.5640    -5.8550    11.0670 ca         1 A1A       0.014700
     17 C11         10.2310    -8.2350    11.5410 ca         1 A1A      -0.009000
     18 C16         11.9720   -11.5090    14.3450 c3         1 A1A      -0.088600
     19 N2           8.6650    -8.0320    15.3530 nb         1 A1A      -0.307000
     20 C18          7.5910    -7.4450    15.9290 ca         1 A1A       0.196900
     21 C19          6.0910    -9.0000    15.1740 ca         1 A1A       0.175500
     22 C3           7.1250    -9.6600    14.5600 ca         1 A1A      -0.283800
     23 C2           6.5980   -10.8140    13.8880 cc         1 A1A      -0.064200
     24 N4           4.9090    -9.6820    14.9300 na         1 A1A      -0.261400
     25 C1           5.2300   -10.8120    14.1220 cd         1 A1A      -0.276200
     26 S            4.0600   -12.0300    13.5000 sy         1 A1A       1.180200
     27 O            2.7350   -11.8270    14.0880 o          1 A1A      -0.545000
     28 O1           4.7100   -13.3410    13.4190 o          1 A1A      -0.545000
     29 N            3.9540   -11.4920    11.9220 n7         1 A1A      -0.895300
     30 C            3.7430   -10.0490    11.6830 c3         1 A1A       0.187100
     31 H7           9.2600   -10.6590    13.5640 hn         1 A1A       0.498000
     32 H           11.2440    -8.8800    14.7660 h1         1 A1A       0.084700
     33 H8          11.5540    -6.6330    14.2530 ha         1 A1A       0.123000
     34 H9          11.4120    -4.7180    12.7040 ha         1 A1A       0.117000
     35 H14          9.7010    -3.7880     8.3270 hc         1 A1A       0.066700
     36 H13          8.5330    -4.6860     9.2870 hc         1 A1A       0.066700
     37 H17         11.3710   -10.8110    12.4030 hc         1 A1A       0.051700
     38 H23         13.8590   -10.6140    12.5810 hc         1 A1A       0.039533
     39 H21         13.1150    -9.0890    12.0880 hc         1 A1A       0.039533
     40 H22         13.6680    -9.3020    13.7630 hc         1 A1A       0.039533
     41 H11         10.9190    -6.0180     7.8200 h1         1 A1A       0.106700
     42 H12          9.2420    -5.9740     7.1800 h1         1 A1A       0.106700
     43 H15         11.5560    -4.4320     9.7890 hc         1 A1A       0.064700
     44 H16         10.2730    -3.7330    10.7500 hc         1 A1A       0.064700
     45 H10          9.8970    -9.2200    11.2210 ha         1 A1A       0.126000
     46 H20         12.6510   -12.2820    13.9650 hc         1 A1A       0.039533
     47 H19         12.3860   -11.1240    15.2850 hc         1 A1A       0.039533
     48 H18         11.0130   -11.9930    14.5660 hc         1 A1A       0.039533
     49 H24          7.7770    -6.5330    16.4940 h5         1 A1A       0.045100
     50 H6           7.1340   -11.5530    13.2950 ha         1 A1A       0.213000
     51 H1           3.9900    -9.4180    15.2730 hn         1 A1A       0.386000
     52 H5           3.1240   -12.0020    11.6220 hn         1 A1A       0.493000
     53 H2           3.5680    -9.8580    10.6150 h1         1 A1A       0.053700
     54 H3           2.8710    -9.6730    12.2370 h1         1 A1A       0.053700
     55 H4           4.6190    -9.4580    11.9790 h1         1 A1A       0.053700
     56 O3          10.1980    -8.5620     8.4070 o          1 A1A      -0.524000
@<TRIPOS>BOND
     1     1     3 1   
     2     1     4 1   
     3     1    31 1   
     4     2    20 ar  
     5     2    21 ar  
     6     3    19 ar  
     7     3    22 ar  
     8     4     5 1   
     9     4    10 1   
    10     4    32 1   
    11     5     6 ar  
    12     5    17 ar  
    13     6     7 ar  
    14     6    33 1   
    15     7    16 ar  
    16     7    34 1   
    17     8    12 1   
    18     8    16 ar  
    19     8    17 ar  
    20     9    14 1   
    21     9    15 1   
    22     9    35 1   
    23     9    36 1   
    24    10    11 1   
    25    10    18 1   
    26    10    37 1   
    27    11    38 1   
    28    11    39 1   
    29    11    40 1   
    30    12    13 2   
    31    12    14 1   
    32    12    56 2   
    33    14    41 1   
    34    14    42 1   
    35    15    16 1   
    36    15    43 1   
    37    15    44 1   
    38    17    45 1   
    39    18    46 1   
    40    18    47 1   
    41    18    48 1   
    42    19    20 ar  
    43    20    49 1   
    44    21    22 ar  
    45    21    24 1   
    46    22    23 1   
    47    23    25 2   
    48    23    50 1   
    49    24    25 1   
    50    24    51 1   
    51    25    26 1   
    52    26    27 2   
    53    26    28 2   
    54    26    29 1   
    55    29    30 1   
    56    29    52 1   
    57    30    53 1   
    58    30    54 1   
    59    30    55 1   
@<TRIPOS>SUBSTRUCTURE
     1 A1A         1 TEMP              0 ****  ****    0 ROOT
