@<TRIPOS>MOLECULE
A1A
   66    71     1     0     0
SMALL
No Charge or Current Charge


@<TRIPOS>ATOM
      1 N1           8.7820    -7.8050    15.1960 nb         1 A1A      -0.298000
      2 N3           4.8040    -8.8410    14.9110 na         1 A1A      -0.314400
      3 C4           8.3280    -8.8210    14.4350 ca         1 A1A       0.430900
      4 C5           7.8500    -7.1070    15.8900 ca         1 A1A       0.176900
      5 C6           6.0800    -8.3450    15.1360 ca         1 A1A       0.150500
      6 C7           4.8440    -9.9280    14.0240 cc         1 A1A       0.010700
      7 C8           3.7370   -10.7400    13.5200 ca         1 A1A      -0.223800
      8 C10          1.6610   -12.2150    12.6090 ca         1 A1A       0.404900
      9 C13         -0.8650   -12.7170    12.1700 cy         1 A1A       0.223300
     10 C15          6.1770   -10.1000    13.7000 cd         1 A1A      -0.199200
     11 C17         10.7230    -7.9840    12.5750 ca         1 A1A      -0.111300
     12 C20         10.8720    -5.6360    10.9810 ca         1 A1A       0.013700
     13 C21         10.2250    -6.7970    10.4890 ca         1 A1A      -0.247500
     14 C22         10.1520    -7.9570    11.2870 ca         1 A1A      -0.009000
     15 C24         10.0340    -4.1510     8.9970 c6         1 A1A      -0.056400
     16 S            9.4550    -6.8410     8.8610 sy         1 A1A       1.050500
     17 O1           9.9690    -8.0150     8.1410 o          1 A1A      -0.523000
     18 C23         10.0700    -5.3590     8.0370 c6         1 A1A      -0.305400
     19 C25         11.0270    -4.3400    10.1670 c6         1 A1A      -0.049100
     20 C19         11.4420    -5.6740    12.2680 ca         1 A1A      -0.131000
     21 C18         11.3670    -6.8310    13.0600 ca         1 A1A      -0.030000
     22 C3          10.6510    -9.2430    13.4430 c3         1 A1A       0.286800
     23 C1          11.3830   -10.4670    12.8070 c3         1 A1A      -0.068700
     24 C2          12.8340   -10.1220    12.3820 c3         1 A1A      -0.087600
     25 C           11.3870   -11.7030    13.7430 c3         1 A1A      -0.087600
     26 N            9.2400    -9.5660    13.7020 nu         1 A1A      -0.918100
     27 C16          6.9590    -9.1030    14.3990 ca         1 A1A      -0.249800
     28 N2           6.5110    -7.3250    15.9000 nb         1 A1A      -0.227000
     29 C14          2.4110   -10.4800    13.9140 ca         1 A1A       0.168400
     30 N6           1.3750   -11.2130    13.4630 nb         1 A1A      -0.241000
     31 N4           2.8910   -12.5480    12.1710 nb         1 A1A      -0.241000
     32 C9           3.9240   -11.8130    12.6240 ca         1 A1A       0.168400
     33 N5           0.6060   -12.9680    12.1500 nn         1 A1A      -0.783300
     34 C12         -1.0070   -14.1000    11.4300 cy         1 A1A       0.125300
     35 O           -1.9750   -14.1860    10.3750 oh         1 A1A      -0.637000
     36 C11          0.4980   -13.9220    11.0060 cy         1 A1A       0.223300
     37 H1           3.9660    -8.4630    15.3340 hn         1 A1A       0.361000
     38 H10          8.2140    -6.2860    16.5040 h5         1 A1A       0.042100
     39 H17         -1.1910   -11.8570    11.5710 h1         1 A1A       0.069200
     40 H16         -1.3390   -12.6950    13.1590 h1         1 A1A       0.069200
     41 H19          6.5710   -10.8580    13.0300 ha         1 A1A       0.202000
     42 H22          9.6440    -8.8430    10.9080 ha         1 A1A       0.126000
     43 H26         10.2910    -3.2350     8.4480 hc         1 A1A       0.066200
     44 H25          9.0170    -4.0000     9.3880 hc         1 A1A       0.066200
     45 H23         11.0950    -5.5870     7.7180 h1         1 A1A       0.105700
     46 H24          9.4310    -5.2100     7.1590 h1         1 A1A       0.105700
     47 H27         12.0520    -4.2990     9.7730 hc         1 A1A       0.063700
     48 H28         10.9380    -3.4760    10.8400 hc         1 A1A       0.063700
     49 H21         11.9520    -4.7970    12.6610 ha         1 A1A       0.116000
     50 H20         11.8130    -6.8290    14.0520 ha         1 A1A       0.124000
     51 H           11.1510    -9.0320    14.4000 h1         1 A1A       0.086700
     52 H5          10.8430   -10.7510    11.8950 hc         1 A1A       0.049700
     53 H7          12.8500    -9.3340    11.6200 hc         1 A1A       0.038533
     54 H6          13.4210    -9.7810    13.2430 hc         1 A1A       0.038533
     55 H8          13.3320   -11.0010    11.9550 hc         1 A1A       0.038533
     56 H4          10.3670   -12.0310    13.9760 hc         1 A1A       0.038533
     57 H3          11.9050   -12.5460    13.2700 hc         1 A1A       0.038533
     58 H2          11.8970   -11.4750    14.6870 hc         1 A1A       0.038533
     59 H9           8.8360   -10.3340    13.1750 hn         1 A1A       0.493000
     60 H18          2.1670    -9.6730    14.6030 h4         1 A1A       0.022600
     61 H11          4.9080   -12.0970    12.2580 h4         1 A1A       0.022600
     62 H14         -1.1430   -14.9350    12.1290 h1         1 A1A       0.050700
     63 H15         -2.8660   -14.2300    10.7900 ho         1 A1A       0.452000
     64 H13          0.6280   -13.4690    10.0160 h1         1 A1A       0.069200
     65 H12          1.0880   -14.8430    11.0850 h1         1 A1A       0.069200
     66 O2           8.0080    -6.6730     9.0520 o          1 A1A      -0.523000
@<TRIPOS>BOND
     1     1     3 ar  
     2     1     4 ar  
     3     2     5 1   
     4     2     6 1   
     5     2    37 1   
     6     3    26 1   
     7     3    27 ar  
     8     4    28 ar  
     9     4    38 1   
    10     5    27 ar  
    11     5    28 ar  
    12     6     7 1   
    13     6    10 2   
    14     7    29 ar  
    15     7    32 ar  
    16     8    30 ar  
    17     8    31 ar  
    18     8    33 1   
    19     9    33 1   
    20     9    34 1   
    21     9    39 1   
    22     9    40 1   
    23    10    27 1   
    24    10    41 1   
    25    11    14 ar  
    26    11    21 ar  
    27    11    22 1   
    28    12    13 ar  
    29    12    19 1   
    30    12    20 ar  
    31    13    14 ar  
    32    13    16 1   
    33    14    42 1   
    34    15    18 1   
    35    15    19 1   
    36    15    43 1   
    37    15    44 1   
    38    16    17 2   
    39    16    18 1   
    40    16    66 2   
    41    18    45 1   
    42    18    46 1   
    43    19    47 1   
    44    19    48 1   
    45    20    21 ar  
    46    20    49 1   
    47    21    50 1   
    48    22    23 1   
    49    22    26 1   
    50    22    51 1   
    51    23    24 1   
    52    23    25 1   
    53    23    52 1   
    54    24    53 1   
    55    24    54 1   
    56    24    55 1   
    57    25    56 1   
    58    25    57 1   
    59    25    58 1   
    60    26    59 1   
    61    29    30 ar  
    62    29    60 1   
    63    31    32 ar  
    64    32    61 1   
    65    33    36 1   
    66    34    35 1   
    67    34    36 1   
    68    34    62 1   
    69    35    63 1   
    70    36    64 1   
    71    36    65 1   
@<TRIPOS>SUBSTRUCTURE
     1 A1A         1 TEMP              0 ****  ****    0 ROOT
