@<TRIPOS>MOLECULE
A1A
   55    59     1     0     0
SMALL
abcg2


@<TRIPOS>ATOM
      1 N1           8.5070    -7.9740    14.9190 nb         1 A1A      -0.304000
      2 N3           4.7940    -9.4480    15.1220 na         1 A1A      -0.311400
      3 C4           8.1500    -9.0070    14.1540 ca         1 A1A       0.436900
      4 C5           7.6030    -7.4410    15.7410 ca         1 A1A       0.176900
      5 C6           6.0030    -8.8390    15.1490 ca         1 A1A       0.150500
      6 C7           4.8180   -10.4880    14.2180 cc         1 A1A       0.030700
      7 C8           3.6560   -11.3190    13.9980 cc         1 A1A      -0.159800
      8 C10          3.4990   -12.3070    13.0450 cd         1 A1A      -0.147000
      9 C13         10.5650    -7.8810    12.3870 ca         1 A1A      -0.107300
     10 C15         11.1720    -5.5540    12.1420 ca         1 A1A      -0.132000
     11 C17         10.3660    -6.7600    10.2660 ca         1 A1A      -0.246500
     12 C20         10.2380    -4.2370     8.6840 c6         1 A1A      -0.055400
     13 C21         11.0310    -4.3000     9.9810 c6         1 A1A      -0.049100
     14 S            9.8540    -6.9110     8.5710 sy         1 A1A       1.049500
     15 O            8.3930    -6.8340     8.5380 o          1 A1A      -0.523500
     16 C19         10.5240    -5.4460     7.8120 c6         1 A1A      -0.306400
     17 C16         10.8350    -5.5560    10.7890 ca         1 A1A       0.012700
     18 C14         11.0410    -6.6880    12.9230 ca         1 A1A      -0.027000
     19 C18         10.2210    -7.9040    11.0450 ca         1 A1A      -0.005000
     20 C3          10.4390    -9.1200    13.2500 c3         1 A1A       0.290800
     21 C1          11.3350   -10.2740    12.7700 c3         1 A1A      -0.071700
     22 C2          12.7820    -9.8120    12.6430 c3         1 A1A      -0.088600
     23 C           11.2440   -11.4630    13.7230 c3         1 A1A      -0.088600
     24 N            9.0640    -9.5640    13.3430 nu         1 A1A      -0.925100
     25 C12          6.8300    -9.4990    14.2360 ca         1 A1A      -0.251800
     26 N2           6.3490    -7.8030    15.9170 nb         1 A1A      -0.228000
     27 C11          6.0660   -10.5470    13.6510 cd         1 A1A      -0.206200
     28 N5           2.2710   -12.8100    13.2210 na         1 A1A       0.001800
     29 N4           1.6030   -12.2350    14.2110 nd         1 A1A      -0.512800
     30 C9           2.4270   -11.3280    14.6950 cc         1 A1A       0.245900
     31 H1           4.0010    -9.1670    15.6780 hn         1 A1A       0.362000
     32 H11          7.9510    -6.6030    16.3370 h5         1 A1A       0.041100
     33 H13          4.1620   -12.6710    12.2760 h4         1 A1A       0.160000
     34 H16         11.5400    -4.6380    12.5870 ha         1 A1A       0.116000
     35 H21         10.5170    -3.3390     8.1320 hc         1 A1A       0.065700
     36 H20          9.1670    -4.1590     8.8830 hc         1 A1A       0.065700
     37 H22         12.0970    -4.2070     9.7480 hc         1 A1A       0.063700
     38 H23         10.7850    -3.4400    10.6050 hc         1 A1A       0.063700
     39 H18         11.5960    -5.6070     7.6790 h1         1 A1A       0.106200
     40 H19         10.0530    -5.3860     6.8290 h1         1 A1A       0.106200
     41 H15         11.3130    -6.6470    13.9700 ha         1 A1A       0.126000
     42 H17          9.8480    -8.8200    10.6000 ha         1 A1A       0.126000
     43 H           10.7670    -8.8540    14.2590 h1         1 A1A       0.082700
     44 H6          10.9880   -10.5950    11.7800 hc         1 A1A       0.049700
     45 H9          12.9080    -9.0340    11.8910 hc         1 A1A       0.038700
     46 H7          13.1490    -9.4200    13.5940 hc         1 A1A       0.038700
     47 H8          13.4230   -10.6480    12.3600 hc         1 A1A       0.038700
     48 H5          10.2360   -11.8720    13.7910 hc         1 A1A       0.038700
     49 H4          11.9010   -12.2670    13.3910 hc         1 A1A       0.038700
     50 H3          11.5560   -11.1740    14.7300 hc         1 A1A       0.038700
     51 H10          8.7560   -10.2890    12.7140 hn         1 A1A       0.498000
     52 H14          6.3870   -11.2670    12.9140 ha         1 A1A       0.198000
     53 H2           1.8400   -13.5490    12.6870 hn         1 A1A       0.376000
     54 H12          2.1240   -10.7100    15.5280 h4         1 A1A       0.036100
     55 O1          10.4850    -8.0930     7.9880 o          1 A1A      -0.523500
@<TRIPOS>BOND
     1     1     3 ar  
     2     1     4 ar  
     3     2     5 1   
     4     2     6 1   
     5     2    31 1   
     6     3    24 1   
     7     3    25 ar  
     8     4    26 ar  
     9     4    32 1   
    10     5    25 ar  
    11     5    26 ar  
    12     6     7 1   
    13     6    27 2   
    14     7     8 2   
    15     7    30 1   
    16     8    28 1   
    17     8    33 1   
    18     9    18 ar  
    19     9    19 ar  
    20     9    20 1   
    21    10    17 ar  
    22    10    18 ar  
    23    10    34 1   
    24    11    14 1   
    25    11    17 ar  
    26    11    19 ar  
    27    12    13 1   
    28    12    16 1   
    29    12    35 1   
    30    12    36 1   
    31    13    17 1   
    32    13    37 1   
    33    13    38 1   
    34    14    15 2   
    35    14    16 1   
    36    14    55 2   
    37    16    39 1   
    38    16    40 1   
    39    18    41 1   
    40    19    42 1   
    41    20    21 1   
    42    20    24 1   
    43    20    43 1   
    44    21    22 1   
    45    21    23 1   
    46    21    44 1   
    47    22    45 1   
    48    22    46 1   
    49    22    47 1   
    50    23    48 1   
    51    23    49 1   
    52    23    50 1   
    53    24    51 1   
    54    25    27 1   
    55    27    52 1   
    56    28    29 1   
    57    28    53 1   
    58    29    30 2   
    59    30    54 1   
@<TRIPOS>SUBSTRUCTURE
     1 A1A         1 TEMP              0 ****  ****    0 ROOT
