@<TRIPOS>MOLECULE
A1A
   37    38     1     0     0
SMALL
No Charge or Current Charge


@<TRIPOS>ATOM
      1 C02        139.4290   144.0520   125.4150 c5         1 A1A       0.153500
      2 C03        138.5860   145.3260   125.6930 c5         1 A1A      -0.079400
      3 C04        137.2220   144.6980   126.0530 c5         1 A1A       0.163800
      4 C07        137.0430   141.9190   128.8110 c3         1 A1A       0.142300
      5 C09        135.8270   141.4230   129.6410 c3         1 A1A       0.122600
      6 C11        136.9850   140.8530   131.7710 ca         1 A1A       0.150100
      7 C12        137.1500   142.1990   132.1650 ca         1 A1A      -0.190000
      8 C13        137.8770   142.5080   133.3270 ca         1 A1A       0.159000
      9 C15        138.4400   141.4770   134.1080 ca         1 A1A       0.079000
     10 C17        138.2670   140.1370   133.7210 ca         1 A1A      -0.061000
     11 C18        137.5400   139.8300   132.5570 ca         1 A1A      -0.141000
     12 C19        138.7980   142.9950   126.4020 c5         1 A1A       0.170800
     13 N01        140.8830   144.2800   125.5540 n8         1 A1A      -0.980200
     14 N05        137.6650   143.7120   127.0590 n3         1 A1A      -0.703600
     15 O08        137.7640   140.7730   128.3070 oh         1 A1A      -0.658000
     16 O10        136.2800   140.4820   130.6430 os         1 A1A      -0.344100
     17 Cl14       138.0670   144.2000   133.7860 cl         1 A1A      -0.171000
     18 Cl16       139.3560   141.8350   135.5720 cl         1 A1A      -0.173000
     19 H021       139.2600   143.7200   124.3810 h1         1 A1A       0.020700
     20 H032       138.9860   145.9130   126.5290 hc         1 A1A       0.051200
     21 H031       138.5230   145.9870   124.8220 hc         1 A1A       0.051200
     22 H042       136.5240   145.4370   126.4700 h1         1 A1A       0.032700
     23 H041       136.7490   144.2170   125.1850 h1         1 A1A       0.032700
     24 H061       135.8190   143.5320   128.0560 h1         1 A1A       0.036700
     25 H062       136.1140   142.2640   126.8720 h1         1 A1A       0.036700
     26 H071       137.6920   142.5010   129.4790 h1         1 A1A       0.058700
     27 H092       135.2940   142.2690   130.0950 h1         1 A1A       0.065700
     28 H091       135.1210   140.9270   128.9620 h1         1 A1A       0.065700
     29 H121       136.7230   143.0150   131.5920 ha         1 A1A       0.139000
     30 H171       138.6960   139.3390   134.3220 ha         1 A1A       0.134000
     31 H181       137.4070   138.7930   132.2600 ha         1 A1A       0.135000
     32 H192       138.4460   142.1200   125.8370 h1         1 A1A       0.045200
     33 H191       139.5250   142.6390   127.1450 h1         1 A1A       0.045200
     34 H1         141.3850   143.4280   125.2770 hn         1 A1A       0.389000
     35 H012       141.1810   144.9710   124.8550 hn         1 A1A       0.389000
     36 H081       137.7620   140.1130   129.0350 ho         1 A1A       0.454000
     37 C06        136.5960   142.8670   127.6540 c3         1 A1A       0.177800
@<TRIPOS>BOND
     1     1     2 1   
     2     1    12 1   
     3     1    13 1   
     4     1    19 1   
     5     2     3 1   
     6     2    20 1   
     7     2    21 1   
     8     3    14 1   
     9     3    22 1   
    10     3    23 1   
    11     4     5 1   
    12     4    15 1   
    13     4    26 1   
    14     4    37 1   
    15     5    16 1   
    16     5    27 1   
    17     5    28 1   
    18     6     7 ar  
    19     6    11 ar  
    20     6    16 1   
    21     7     8 ar  
    22     7    29 1   
    23     8     9 ar  
    24     8    17 1   
    25     9    10 ar  
    26     9    18 1   
    27    10    11 ar  
    28    10    30 1   
    29    11    31 1   
    30    12    14 1   
    31    12    32 1   
    32    12    33 1   
    33    13    34 1   
    34    13    35 1   
    35    14    37 1   
    36    15    36 1   
    37    24    37 1   
    38    25    37 1   
@<TRIPOS>SUBSTRUCTURE
     1 A1A         1 TEMP              0 ****  ****    0 ROOT
