@<TRIPOS>MOLECULE
A1A
   57    60     1     0     0
SMALL
No Charge or Current Charge


@<TRIPOS>ATOM
      1 N1          -9.8810    -8.6650    18.7550 nu         1 A1A      -0.914100
      2 N3          -8.7380    -8.5950    10.5360 ns         1 A1A      -0.408400
      3 C4         -12.8020    -9.0880    19.6220 cc         1 A1A      -0.123200
      4 C5         -12.2010    -7.9730    18.9490 ca         1 A1A      -0.278800
      5 C6         -10.8850    -7.7360    18.5360 ca         1 A1A       0.445900
      6 C7          -8.5570    -8.7040    18.1140 c3         1 A1A       0.289800
      7 C8          -8.7350    -9.0100    16.6230 ca         1 A1A      -0.100300
      8 C10         -9.4480   -10.5090    14.8160 ca         1 A1A      -0.070000
      9 C13         -8.3310    -7.6040     9.6780 c          1 A1A       0.608100
     10 C15         -8.5180    -8.3520    14.2990 ca         1 A1A      -0.226000
     11 C17         -7.6260    -9.7230    18.8430 c3         1 A1A      -0.070700
     12 C20        -11.5900    -5.7130    17.7160 ca         1 A1A       0.191900
     13 C21        -13.1720    -7.0340    18.7130 ca         1 A1A       0.162500
     14 O1          -7.8550    -6.5410    10.0450 o          1 A1A      -0.560100
     15 C14         -8.5180    -7.9320     8.2020 c3         1 A1A      -0.175100
     16 C12         -8.7060    -8.6160    11.9100 cc         1 A1A       0.444800
     17 N2          -9.1710    -9.7220    12.4990 nd         1 A1A      -0.608100
     18 S           -8.0990    -7.3000    12.9580 ss         1 A1A       0.121800
     19 C11         -9.0540    -9.5480    13.8730 ca         1 A1A       0.127400
     20 C9          -9.2900   -10.2390    16.1900 ca         1 A1A      -0.097000
     21 C16         -8.3480    -8.0540    15.6590 ca         1 A1A      -0.038000
     22 C19         -7.3830    -9.3410    20.3270 c3         1 A1A      -0.088600
     23 C18         -6.2680    -9.8950    18.1150 c3         1 A1A      -0.088600
     24 N4         -10.5730    -6.5850    17.9100 nb         1 A1A      -0.298000
     25 N5         -12.8820    -5.8790    18.0880 nb         1 A1A      -0.239000
     26 N6         -14.3810    -7.4950    19.2080 na         1 A1A      -0.311400
     27 C3         -14.1480    -8.7830    19.7770 cd         1 A1A      -0.169300
     28 C2         -15.1130    -9.7120    20.4430 c          1 A1A       0.636300
     29 O          -14.8010   -10.8040    20.9000 o          1 A1A      -0.590100
     30 N          -16.4020    -9.2280    20.4960 ns         1 A1A      -0.506900
     31 C1         -17.5300    -9.9230    21.1180 c3         1 A1A       0.102000
     32 C          -17.5170    -9.7910    22.6510 c3         1 A1A      -0.118100
     33 H9         -10.1830    -9.5110    19.2280 hn         1 A1A       0.496000
     34 H12         -9.1120    -9.4200    10.0910 hn         1 A1A       0.340500
     35 H8         -12.3220   -10.0060    19.9580 ha         1 A1A       0.216000
     36 H           -8.0840    -7.7150    18.2090 h1         1 A1A       0.084700
     37 H11         -9.8740   -11.4540    14.4870 ha         1 A1A       0.130000
     38 H17         -8.1180   -10.7030    18.8360 hc         1 A1A       0.046700
     39 H24        -11.3440    -4.7810    17.2100 h5         1 A1A       0.045100
     40 H15         -8.1830    -7.1210     7.5460 hc         1 A1A       0.070700
     41 H13         -8.0040    -8.8730     7.9760 hc         1 A1A       0.070700
     42 H14         -9.5680    -8.1890     8.0230 hc         1 A1A       0.070700
     43 H10         -9.6020   -10.9850    16.9170 ha         1 A1A       0.110000
     44 H16         -7.9240    -7.0980    15.9630 ha         1 A1A       0.127000
     45 H21         -6.7270   -10.0730    20.8140 hc         1 A1A       0.038700
     46 H22         -6.9100    -8.3550    20.4030 hc         1 A1A       0.038700
     47 H23         -8.3230    -9.3140    20.8910 hc         1 A1A       0.038700
     48 H19         -5.6260   -10.6020    18.6540 hc         1 A1A       0.038700
     49 H18         -6.4070   -10.2850    17.1000 hc         1 A1A       0.038700
     50 H20         -5.7380    -8.9370    18.0450 hc         1 A1A       0.038700
     51 H1         -15.2590    -6.9900    19.1620 hn         1 A1A       0.360000
     52 H7         -16.5630    -8.3180    20.0880 hn         1 A1A       0.308500
     53 H6         -17.4990   -10.9850    20.8380 h1         1 A1A       0.054700
     54 H5         -18.4630    -9.4990    20.7240 h1         1 A1A       0.054700
     55 H3         -18.3830   -10.3060    23.0830 hc         1 A1A       0.043700
     56 H2         -16.6080   -10.2350    23.0730 hc         1 A1A       0.043700
     57 H4         -17.5600    -8.7360    22.9480 hc         1 A1A       0.043700
@<TRIPOS>BOND
     1     1     5 1   
     2     1     6 1   
     3     1    33 1   
     4     2     9 1   
     5     2    16 1   
     6     2    34 1   
     7     3     4 1   
     8     3    27 2   
     9     3    35 1   
    10     4     5 ar  
    11     4    13 ar  
    12     5    24 ar  
    13     6     7 1   
    14     6    11 1   
    15     6    36 1   
    16     7    20 ar  
    17     7    21 ar  
    18     8    19 ar  
    19     8    20 ar  
    20     8    37 1   
    21     9    14 2   
    22     9    15 1   
    23    10    18 1   
    24    10    19 ar  
    25    10    21 ar  
    26    11    22 1   
    27    11    23 1   
    28    11    38 1   
    29    12    24 ar  
    30    12    25 ar  
    31    12    39 1   
    32    13    25 ar  
    33    13    26 1   
    34    15    40 1   
    35    15    41 1   
    36    15    42 1   
    37    16    17 2   
    38    16    18 1   
    39    17    19 1   
    40    20    43 1   
    41    21    44 1   
    42    22    45 1   
    43    22    46 1   
    44    22    47 1   
    45    23    48 1   
    46    23    49 1   
    47    23    50 1   
    48    26    27 1   
    49    26    51 1   
    50    27    28 1   
    51    28    29 2   
    52    28    30 1   
    53    30    31 1   
    54    30    52 1   
    55    31    32 1   
    56    31    53 1   
    57    31    54 1   
    58    32    55 1   
    59    32    56 1   
    60    32    57 1   
@<TRIPOS>SUBSTRUCTURE
     1 A1A         1 TEMP              0 ****  ****    0 ROOT
