@<TRIPOS>MOLECULE
A1A
   48    51     1     0     0
SMALL
No Charge or Current Charge


@<TRIPOS>ATOM
      1 N1           8.5810    -7.8140    15.2410 nb         1 A1A      -0.300000
      2 N3           4.7480    -9.2940    14.9390 na         1 A1A      -0.304400
      3 C4           8.2590    -8.9200    14.5410 ca         1 A1A       0.440900
      4 C5           7.5590    -7.1780    15.8660 ca         1 A1A       0.185900
      5 C6           5.9550    -8.6470    15.1590 ca         1 A1A       0.160500
      6 C7           4.9250   -10.4280    14.1270 cc         1 A1A      -0.055400
      7 C8           6.2770   -10.4670    13.8500 cd         1 A1A      -0.158200
      8 C10         10.5940    -7.9460    12.6760 ca         1 A1A      -0.108300
      9 C13         10.5230    -5.7030    10.9330 ca         1 A1A       0.013700
     10 C15          9.5720    -4.4500     8.8430 c6         1 A1A      -0.056400
     11 C17         10.0160    -6.9580    10.5090 ca         1 A1A      -0.247500
     12 S            9.2920    -7.1900     8.8760 sy         1 A1A       1.050500
     13 O            7.8320    -7.1710     9.0350 o          1 A1A      -0.522500
     14 C16          9.7600    -5.7050     7.9660 c6         1 A1A      -0.306400
     15 C14         10.5540    -4.4520    10.0370 c6         1 A1A      -0.049100
     16 C12         11.0640    -5.5950    12.2290 ca         1 A1A      -0.131000
     17 C11         11.0970    -6.7000    13.0940 ca         1 A1A      -0.030000
     18 C18         10.0520    -8.0650    11.3810 ca         1 A1A      -0.007000
     19 C3          10.6380    -9.1470    13.6250 c3         1 A1A       0.290800
     20 C1          11.5160   -10.3190    13.0860 c3         1 A1A      -0.071700
     21 C2          11.6330   -11.4840    14.1030 c3         1 A1A      -0.088600
     22 C           12.9300    -9.8440    12.6640 c3         1 A1A      -0.088600
     23 N            9.2650    -9.6070    13.8800 nu         1 A1A      -0.921100
     24 C9           6.9300    -9.3510    14.4960 ca         1 A1A      -0.264800
     25 Br           3.5700   -11.6090    13.5640 br         1 A1A      -0.021700
     26 N2           6.2520    -7.5390    15.8620 nb         1 A1A      -0.228000
     27 H1           3.8600    -8.9820    15.3180 hn         1 A1A       0.374000
     28 H10          7.8150    -6.2840    16.4310 h5         1 A1A       0.044100
     29 H11          6.7560   -11.2270    13.2370 ha         1 A1A       0.214000
     30 H16          8.5360    -4.3860     9.2080 hc         1 A1A       0.066200
     31 H17          9.7390    -3.5470     8.2380 hc         1 A1A       0.066200
     32 H19          9.1280    -5.6840     7.0700 h1         1 A1A       0.106200
     33 H18         10.8100    -5.8390     7.6780 h1         1 A1A       0.106200
     34 H15         10.3570    -3.5620    10.6510 hc         1 A1A       0.064200
     35 H14         11.5770    -4.3240     9.6570 hc         1 A1A       0.064200
     36 H13         11.4670    -4.6440    12.5700 ha         1 A1A       0.116000
     37 H12         11.5190    -6.5860    14.0900 ha         1 A1A       0.123000
     38 H20          9.6520    -9.0230    11.0540 ha         1 A1A       0.127000
     39 H           11.0880    -8.8200    14.5750 h1         1 A1A       0.083700
     40 H5          11.0340   -10.7210    12.1850 hc         1 A1A       0.051700
     41 H8          10.6500   -11.9080    14.3400 hc         1 A1A       0.039033
     42 H7          12.2520   -12.2930    13.6970 hc         1 A1A       0.039033
     43 H6          12.0910   -11.1400    15.0380 hc         1 A1A       0.039033
     44 H4          12.8790    -9.1100    11.8510 hc         1 A1A       0.039033
     45 H2          13.4550    -9.3830    13.5100 hc         1 A1A       0.039033
     46 H3          13.5330   -10.6880    12.3070 hc         1 A1A       0.039033
     47 H9           8.9630   -10.4500    13.4010 hn         1 A1A       0.499000
     48 O1           9.9470    -8.3430     8.2440 o          1 A1A      -0.522500
@<TRIPOS>BOND
     1     1     3 ar  
     2     1     4 ar  
     3     2     5 1   
     4     2     6 1   
     5     2    27 1   
     6     3    23 1   
     7     3    24 ar  
     8     4    26 ar  
     9     4    28 1   
    10     5    24 ar  
    11     5    26 ar  
    12     6     7 2   
    13     6    25 1   
    14     7    24 1   
    15     7    29 1   
    16     8    17 ar  
    17     8    18 ar  
    18     8    19 1   
    19     9    11 ar  
    20     9    15 1   
    21     9    16 ar  
    22    10    14 1   
    23    10    15 1   
    24    10    30 1   
    25    10    31 1   
    26    11    12 1   
    27    11    18 ar  
    28    12    13 2   
    29    12    14 1   
    30    12    48 2   
    31    14    32 1   
    32    14    33 1   
    33    15    34 1   
    34    15    35 1   
    35    16    17 ar  
    36    16    36 1   
    37    17    37 1   
    38    18    38 1   
    39    19    20 1   
    40    19    23 1   
    41    19    39 1   
    42    20    21 1   
    43    20    22 1   
    44    20    40 1   
    45    21    41 1   
    46    21    42 1   
    47    21    43 1   
    48    22    44 1   
    49    22    45 1   
    50    22    46 1   
    51    23    47 1   
@<TRIPOS>SUBSTRUCTURE
     1 A1A         1 TEMP              0 ****  ****    0 ROOT
