@<TRIPOS>MOLECULE
A1A
   70    74     1     0     0
SMALL
No Charge or Current Charge


@<TRIPOS>ATOM
      1 N1           4.9130   -14.2020    15.8790 nb         1 A1A      -0.303000
      2 N3           8.9320   -15.0160    15.4910 na         1 A1A      -0.307400
      3 C4           5.5540   -15.1500    16.5900 ca         1 A1A       0.441900
      4 C5           5.6650   -13.4960    14.9990 ca         1 A1A       0.185900
      5 C6           7.6090   -14.6000    15.4770 ca         1 A1A       0.159500
      6 C7           9.1160   -16.0630    16.4150 cc         1 A1A      -0.044300
      7 C8          10.3530   -16.7730    16.7700 ca         1 A1A       0.037200
      8 C10         11.5300   -18.6080    17.8880 ca         1 A1A      -0.002500
      9 C13         16.8070   -20.8330    16.7670 c3         1 A1A       0.154600
     10 C15         11.5950   -16.2900    16.3080 ca         1 A1A      -0.129000
     11 C17          6.9220   -15.3620    16.3910 ca         1 A1A      -0.265800
     12 C20          2.7220   -12.0470    19.1600 ca         1 A1A      -0.131000
     13 C21          3.5070   -11.9250    20.3220 ca         1 A1A       0.014700
     14 C22          4.2890   -13.0320    20.7360 ca         1 A1A      -0.245500
     15 C24          4.8000   -11.4740    23.0620 c6         1 A1A      -0.305400
     16 C26          3.4320   -10.5990    21.1000 c6         1 A1A      -0.050100
     17 S1           5.3350   -12.9660    22.2010 sy         1 A1A       1.047500
     18 O3           5.0160   -14.1240    23.0460 o          1 A1A      -0.521500
     19 C25          4.6050   -10.3130    22.0650 c6         1 A1A      -0.055400
     20 C19          2.7150   -13.2370    18.4130 ca         1 A1A      -0.030000
     21 C23          4.2790   -14.2240    19.9830 ca         1 A1A      -0.008000
     22 C18          3.4920   -14.3360    18.8200 ca         1 A1A      -0.117300
     23 C3           3.4750   -15.6310    18.0030 c3         1 A1A       0.285800
     24 C1           2.9350   -16.8550    18.8070 c3         1 A1A      -0.068700
     25 C2           1.5680   -16.5580    19.4750 c3         1 A1A      -0.088100
     26 C            2.8300   -18.1330    17.9350 c3         1 A1A      -0.088100
     27 N            4.8320   -15.9000    17.5050 nu         1 A1A      -0.915100
     28 N2           6.9910   -13.6450    14.7590 nb         1 A1A      -0.231000
     29 C16          7.8720   -16.2770    16.9830 cd         1 A1A      -0.163200
     30 C14         12.7920   -16.9500    16.6320 ca         1 A1A      -0.002500
     31 C11         12.7650   -18.1120    17.4260 ca         1 A1A      -0.280500
     32 C9          10.3360   -17.9420    17.5610 ca         1 A1A      -0.129000
     33 S           14.2970   -18.9560    17.8330 sy         1 A1A       1.146600
     34 O           15.3940   -17.9860    17.8680 o          1 A1A      -0.541500
     35 O1          14.0570   -19.9320    18.8980 o          1 A1A      -0.541500
     36 N4          14.5100   -19.8300    16.4270 n7         1 A1A      -0.897300
     37 C12         15.2990   -21.0850    16.4830 c3         1 A1A       0.213800
     38 O2          17.5510   -22.0620    16.6930 oh         1 A1A      -0.664000
     39 H1           9.6570   -14.6140    14.9100 hn         1 A1A       0.364000
     40 H10          5.1500   -12.7280    14.4250 h5         1 A1A       0.044100
     41 H12         11.4860   -19.5090    18.5000 ha         1 A1A       0.137500
     42 H16         17.1910   -20.1150    16.0290 h1         1 A1A       0.033700
     43 H17         16.9230   -20.3850    17.7620 h1         1 A1A       0.033700
     44 H20         11.6410   -15.3930    15.6970 ha         1 A1A       0.118000
     45 H23          2.1070   -11.2130    18.8300 ha         1 A1A       0.117000
     46 H26          3.8610   -11.7310    23.5680 h1         1 A1A       0.107700
     47 H25          5.5750   -11.2570    23.8070 h1         1 A1A       0.107700
     48 H29          2.4920   -10.5830    21.6680 hc         1 A1A       0.064700
     49 H30          3.3580    -9.7650    20.3880 hc         1 A1A       0.064700
     50 H27          4.4030    -9.3830    22.6160 hc         1 A1A       0.066700
     51 H28          5.5290   -10.1360    21.4940 hc         1 A1A       0.066700
     52 H22          2.1020   -13.3010    17.5170 ha         1 A1A       0.127000
     53 H24          4.8900   -15.0680    20.3000 ha         1 A1A       0.125000
     54 H            2.8000   -15.4890    17.1450 h1         1 A1A       0.090700
     55 H5           3.6440   -17.0710    19.6170 hc         1 A1A       0.049700
     56 H6           1.6460   -15.7360    20.1960 hc         1 A1A       0.039367
     57 H7           0.8180   -16.2850    18.7220 hc         1 A1A       0.039367
     58 H8           1.2020   -17.4380    20.0180 hc         1 A1A       0.039367
     59 H2           3.8080   -18.4250    17.5330 hc         1 A1A       0.039367
     60 H4           2.4520   -18.9760    18.5250 hc         1 A1A       0.039367
     61 H3           2.1470   -17.9740    17.0910 hc         1 A1A       0.039367
     62 H9           5.3660   -16.6190    17.9830 hn         1 A1A       0.495000
     63 H21          7.6500   -17.0000    17.7630 ha         1 A1A       0.205000
     64 H19         13.7380   -16.5560    16.2610 ha         1 A1A       0.137500
     65 H11          9.4000   -18.3540    17.9240 ha         1 A1A       0.118000
     66 H13         13.5450   -20.0410    16.1760 hn         1 A1A       0.479000
     67 H15         14.9010   -21.7700    17.2440 h1         1 A1A       0.061700
     68 H14         15.2250   -21.6030    15.5170 h1         1 A1A       0.061700
     69 H18         18.4940   -21.8380    16.8630 ho         1 A1A       0.450000
     70 O4           6.7150   -12.7440    21.7480 o          1 A1A      -0.521500
@<TRIPOS>BOND
     1     1     3 ar  
     2     1     4 ar  
     3     2     5 1   
     4     2     6 1   
     5     2    39 1   
     6     3    11 ar  
     7     3    27 1   
     8     4    28 ar  
     9     4    40 1   
    10     5    11 ar  
    11     5    28 ar  
    12     6     7 1   
    13     6    29 2   
    14     7    10 ar  
    15     7    32 ar  
    16     8    31 ar  
    17     8    32 ar  
    18     8    41 1   
    19     9    37 1   
    20     9    38 1   
    21     9    42 1   
    22     9    43 1   
    23    10    30 ar  
    24    10    44 1   
    25    11    29 1   
    26    12    13 ar  
    27    12    20 ar  
    28    12    45 1   
    29    13    14 ar  
    30    13    16 1   
    31    14    17 1   
    32    14    21 ar  
    33    15    17 1   
    34    15    19 1   
    35    15    46 1   
    36    15    47 1   
    37    16    19 1   
    38    16    48 1   
    39    16    49 1   
    40    17    18 2   
    41    17    70 2   
    42    19    50 1   
    43    19    51 1   
    44    20    22 ar  
    45    20    52 1   
    46    21    22 ar  
    47    21    53 1   
    48    22    23 1   
    49    23    24 1   
    50    23    27 1   
    51    23    54 1   
    52    24    25 1   
    53    24    26 1   
    54    24    55 1   
    55    25    56 1   
    56    25    57 1   
    57    25    58 1   
    58    26    59 1   
    59    26    60 1   
    60    26    61 1   
    61    27    62 1   
    62    29    63 1   
    63    30    31 ar  
    64    30    64 1   
    65    31    33 1   
    66    32    65 1   
    67    33    34 2   
    68    33    35 2   
    69    33    36 1   
    70    36    37 1   
    71    36    66 1   
    72    37    67 1   
    73    37    68 1   
    74    38    69 1   
@<TRIPOS>SUBSTRUCTURE
     1 A1A         1 TEMP              0 ****  ****    0 ROOT
