@<TRIPOS>MOLECULE
A1A
   55    59     1     0     0
SMALL
abcg2


@<TRIPOS>ATOM
      1 N1         -10.3120    -6.5090    18.6530 nb         1 A1A      -0.307000
      2 N3         -14.0030    -7.6770    19.6590 na         1 A1A      -0.308400
      3 C4         -10.7280    -7.7420    18.3560 ca         1 A1A       0.444900
      4 C5         -11.1420    -5.6860    19.2910 ca         1 A1A       0.184900
      5 C6         -12.7870    -7.1500    19.3900 ca         1 A1A       0.156500
      6 C7         -14.0660    -8.9640    19.1700 cc         1 A1A      -0.000300
      7 C8         -15.2600    -9.7580    19.3250 cc         1 A1A      -0.084800
      8 C13        -12.8630    -9.2740    18.5850 cd         1 A1A      -0.178200
      9 C15         -8.4740    -8.5950    15.7730 ca         1 A1A      -0.089300
     10 C17         -8.4760   -10.1840    13.9500 ca         1 A1A      -0.101000
     11 C20         -8.3150    -7.5660    14.8530 ca         1 A1A      -0.109000
     12 C21         -8.2260    -7.0160    11.2270 c          1 A1A       0.542000
     13 C22         -8.6800    -8.4150    10.8620 c6         1 A1A       0.072600
     14 O           -8.1120    -6.1360    10.3980 o          1 A1A      -0.527000
     15 O1          -8.1650    -9.4130    11.7220 os         1 A1A      -0.325100
     16 C18         -8.3030    -9.1520    13.0440 ca         1 A1A       0.083100
     17 C16         -8.5510    -9.9050    15.3080 ca         1 A1A      -0.105000
     18 N7          -8.0190    -6.8320    12.5510 ns         1 A1A      -0.142000
     19 C19         -8.2250    -7.8370    13.4950 ca         1 A1A      -0.080000
     20 C3          -8.5690    -8.2800    17.2510 c3         1 A1A       0.285800
     21 C1          -7.4840    -8.9890    18.0820 c3         1 A1A      -0.068700
     22 C2          -6.0970    -8.6260    17.5610 c3         1 A1A      -0.088100
     23 C           -7.5980    -8.6350    19.5610 c3         1 A1A      -0.088100
     24 N           -9.9060    -8.5900    17.7230 nu         1 A1A      -0.918100
     25 C14        -12.0400    -8.1240    18.7200 ca         1 A1A      -0.265800
     26 N2         -12.3740    -5.9170    19.6960 nb         1 A1A      -0.233000
     27 C11        -15.6420   -10.8900    18.6160 cd         1 A1A      -0.083000
     28 C12        -15.0060   -11.5510    17.5460 ch         1 A1A       0.345000
     29 N6         -14.4810   -12.0860    16.6710 n1         1 A1A      -0.430000
     30 N5         -16.8340   -11.2970    19.1140 na         1 A1A       0.165800
     31 N4         -17.2460   -10.5100    20.0810 nd         1 A1A      -0.490800
     32 C9         -16.3210    -9.5770    20.2280 cc         1 A1A       0.233900
     33 H1         -14.7580    -7.1750    20.1020 hn         1 A1A       0.364000
     34 H10        -10.7450    -4.6980    19.5030 h5         1 A1A       0.044100
     35 H14        -18.5000   -12.4870    19.3090 h1         1 A1A       0.068367
     36 H13        -17.9320   -12.2980    17.6400 h1         1 A1A       0.068367
     37 H12        -17.0480   -13.3490    18.7680 h1         1 A1A       0.068367
     38 H15        -12.6000   -10.2200    18.1370 ha         1 A1A       0.206000
     39 H17         -8.5330   -11.2040    13.5920 ha         1 A1A       0.133000
     40 H18         -8.2500    -6.5390    15.1940 ha         1 A1A       0.126000
     41 H20         -9.7780    -8.4280    10.8600 h1         1 A1A       0.085200
     42 H21         -8.3380    -8.6490     9.8560 h1         1 A1A       0.085200
     43 H16         -8.6740   -10.7290    16.0020 ha         1 A1A       0.117000
     44 H19         -7.7870    -5.9010    12.8730 hn         1 A1A       0.166000
     45 H           -8.4370    -7.2040    17.3800 h1         1 A1A       0.095700
     46 H5          -7.6220   -10.0720    17.9770 hc         1 A1A       0.043700
     47 H7          -5.9460    -8.9370    16.5270 hc         1 A1A       0.038533
     48 H6          -5.9350    -7.5470    17.6130 hc         1 A1A       0.038533
     49 H8          -5.3240    -9.1050    18.1650 hc         1 A1A       0.038533
     50 H2          -8.5640    -8.9160    19.9810 hc         1 A1A       0.038533
     51 H3          -6.8290    -9.1540    20.1340 hc         1 A1A       0.038533
     52 H4          -7.4610    -7.5630    19.7170 hc         1 A1A       0.038533
     53 H9         -10.2530    -9.5200    17.5460 hn         1 A1A       0.495000
     54 H11        -16.4350    -8.8140    20.9830 h4         1 A1A       0.045100
     55 C10        -17.6220   -12.4290    18.6750 c3         1 A1A       0.065900
@<TRIPOS>BOND
     1     1     3 ar  
     2     1     4 ar  
     3     2     5 1   
     4     2     6 1   
     5     2    33 1   
     6     3    24 1   
     7     3    25 ar  
     8     4    26 ar  
     9     4    34 1   
    10     5    25 ar  
    11     5    26 ar  
    12     6     7 1   
    13     6     8 2   
    14     7    27 2   
    15     7    32 1   
    16     8    25 1   
    17     8    38 1   
    18     9    11 ar  
    19     9    17 ar  
    20     9    20 1   
    21    10    16 ar  
    22    10    17 ar  
    23    10    39 1   
    24    11    19 ar  
    25    11    40 1   
    26    12    13 1   
    27    12    14 2   
    28    12    18 1   
    29    13    15 1   
    30    13    41 1   
    31    13    42 1   
    32    15    16 1   
    33    16    19 ar  
    34    17    43 1   
    35    18    19 1   
    36    18    44 1   
    37    20    21 1   
    38    20    24 1   
    39    20    45 1   
    40    21    22 1   
    41    21    23 1   
    42    21    46 1   
    43    22    47 1   
    44    22    48 1   
    45    22    49 1   
    46    23    50 1   
    47    23    51 1   
    48    23    52 1   
    49    24    53 1   
    50    27    28 1   
    51    27    30 1   
    52    28    29 3   
    53    30    31 1   
    54    30    55 1   
    55    31    32 2   
    56    32    54 1   
    57    35    55 1   
    58    36    55 1   
    59    37    55 1   
@<TRIPOS>SUBSTRUCTURE
     1 A1A         1 TEMP              0 ****  ****    0 ROOT
