@<TRIPOS>MOLECULE
A1A
   80    85     1     0     0
SMALL
No Charge or Current Charge


@<TRIPOS>ATOM
      1 N1          13.9190   -19.0820    15.3590 n3         1 A1A      -0.718600
      2 N3           5.4950   -14.4980    15.8760 nb         1 A1A      -0.305000
      3 C4          14.0080   -18.5760    16.7500 c3         1 A1A       0.212100
      4 C5          12.6630   -18.5460    17.4720 ca         1 A1A      -0.083300
      5 C6          12.4490   -19.3350    18.6160 ca         1 A1A      -0.103000
      6 C7          11.2090   -19.3010    19.2720 ca         1 A1A      -0.108000
      7 C8          10.1750   -18.4810    18.7880 ca         1 A1A      -0.091000
      8 C10          9.3050   -16.8200    17.1090 cc         1 A1A      -0.019300
      9 C13          5.9060   -15.4550    16.7310 ca         1 A1A       0.439900
     10 C15          3.7080   -14.1910    18.5940 ca         1 A1A      -0.110300
     11 C17          3.2130   -11.8050    18.6550 ca         1 A1A      -0.132000
     12 C20          4.3540   -14.0710    19.8400 ca         1 A1A      -0.006000
     13 C21          4.8510   -11.1360    22.7480 c6         1 A1A      -0.305400
     14 C22          4.9370   -10.0550    21.6500 c6         1 A1A      -0.055400
     15 C24          2.8240   -16.6130    18.6930 c3         1 A1A      -0.070700
     16 C26          2.6580   -17.9420    17.9110 c3         1 A1A      -0.088100
     17 C28          8.1400   -15.2710    15.8700 ca         1 A1A       0.153500
     18 S            5.2860   -12.7540    22.0790 sy         1 A1A       1.049500
     19 O1           4.7140   -13.7840    22.9570 o          1 A1A      -0.523500
     20 C23          3.8640   -10.2830    20.5600 c6         1 A1A      -0.049100
     21 C18          3.8580   -11.6730    19.9000 ca         1 A1A       0.012700
     22 C16          3.1400   -13.0470    18.0050 ca         1 A1A      -0.028000
     23 C19          4.4290   -12.8250    20.4960 ca         1 A1A      -0.247500
     24 C14          3.6200   -15.5430    17.8800 c3         1 A1A       0.288800
     25 C25          1.4370   -16.0890    19.1440 c3         1 A1A      -0.088100
     26 N2           4.9790   -16.0230    17.5920 nu         1 A1A      -0.922100
     27 C27          6.4410   -13.9740    15.0580 ca         1 A1A       0.179900
     28 N4           7.7530   -14.3120    15.0090 nb         1 A1A      -0.230000
     29 C12          7.2460   -15.8550    16.7350 ca         1 A1A      -0.258800
     30 C11          7.9800   -16.8310    17.5100 cd         1 A1A      -0.187200
     31 N5           9.3800   -15.8530    16.0890 na         1 A1A      -0.309400
     32 C9          10.3680   -17.6850    17.6380 ca         1 A1A      -0.032800
     33 C29         11.6220   -17.7260    16.9910 ca         1 A1A      -0.087000
     34 C3          13.4440   -20.4890    15.2820 c6         1 A1A       0.142800
     35 C2          13.2520   -20.9670    13.8170 c6         1 A1A       0.098000
     36 C30         15.2070   -18.9620    14.6330 c6         1 A1A       0.142800
     37 C31         15.0920   -19.3810    13.1410 c6         1 A1A       0.098000
     38 N           14.4020   -20.6900    12.9000 n          1 A1A      -0.417800
     39 C1          14.4350   -21.3090    11.6300 c          1 A1A       0.609100
     40 O           13.5870   -22.1310    11.3070 o          1 A1A      -0.605100
     41 C           15.5960   -20.9920    10.6830 c3         1 A1A      -0.177100
     42 H9          14.7160   -19.1870    17.3270 h1         1 A1A       0.040200
     43 H10         14.4060   -17.5520    16.7440 h1         1 A1A       0.040200
     44 H11         13.2420   -19.9740    18.9980 ha         1 A1A       0.113000
     45 H12         11.0480   -19.9100    20.1590 ha         1 A1A       0.117000
     46 H13          9.2290   -18.4700    19.3220 ha         1 A1A       0.119000
     47 H17          2.7590   -10.9350    18.1850 ha         1 A1A       0.116000
     48 H18          4.8040   -14.9500    20.2970 ha         1 A1A       0.126000
     49 H20          3.8310   -11.2300    23.1400 h1         1 A1A       0.106200
     50 H19          5.5510   -10.9480    23.5710 h1         1 A1A       0.106200
     51 H21          4.7930    -9.0620    22.0980 hc         1 A1A       0.065700
     52 H22          5.9390   -10.0460    21.1960 hc         1 A1A       0.065700
     53 H25          3.3910   -16.8400    19.6040 hc         1 A1A       0.049700
     54 H29          2.0980   -18.6740    18.5070 hc         1 A1A       0.038867
     55 H31          2.1140   -17.7780    16.9730 hc         1 A1A       0.038867
     56 H30          3.6300   -18.3890    17.6690 hc         1 A1A       0.038867
     57 H23          2.8710   -10.1010    20.9950 hc         1 A1A       0.063700
     58 H24          3.9890    -9.5140    19.7850 hc         1 A1A       0.063700
     59 H16          2.6390   -13.1180    17.0430 ha         1 A1A       0.126000
     60 H            3.0830   -15.3980    16.9300 h1         1 A1A       0.085700
     61 H26          0.8910   -16.8640    19.6970 hc         1 A1A       0.038867
     62 H27          1.5340   -15.2210    19.8070 hc         1 A1A       0.038867
     63 H28          0.8300   -15.7950    18.2790 hc         1 A1A       0.038867
     64 H15          5.3480   -16.7580    18.1880 hn         1 A1A       0.497000
     65 H32          6.1120   -13.2000    14.3670 h5         1 A1A       0.041100
     66 H14          7.5560   -17.4790    18.2710 ha         1 A1A       0.202000
     67 H1          10.2190   -15.6060    15.5790 hn         1 A1A       0.363000
     68 H33         11.7970   -17.1280    16.1010 ha         1 A1A       0.122000
     69 H8          12.4860   -20.6080    15.8080 h1         1 A1A       0.042450
     70 H7          14.1650   -21.1570    15.7770 h1         1 A1A       0.042450
     71 H6          12.3600   -20.4730    13.4070 h1         1 A1A       0.060950
     72 H5          13.0450   -22.0460    13.8320 h1         1 A1A       0.060950
     73 H35         15.5760   -17.9270    14.6750 h1         1 A1A       0.042450
     74 H34         15.9690   -19.5920    15.1140 h1         1 A1A       0.042450
     75 H37         14.5400   -18.5980    12.6020 h1         1 A1A       0.060950
     76 H36         16.1080   -19.4050    12.7250 h1         1 A1A       0.060950
     77 H4          15.5740   -21.6040     9.7740 hc         1 A1A       0.059700
     78 H2          15.5810   -19.9240    10.4390 hc         1 A1A       0.059700
     79 H3          16.5430   -21.1050    11.2220 hc         1 A1A       0.059700
     80 O2           6.7280   -12.7450    21.8000 o          1 A1A      -0.523500
@<TRIPOS>BOND
     1     1     3 1   
     2     1    34 1   
     3     1    36 1   
     4     2     9 ar  
     5     2    27 ar  
     6     3     4 1   
     7     3    42 1   
     8     3    43 1   
     9     4     5 ar  
    10     4    33 ar  
    11     5     6 ar  
    12     5    44 1   
    13     6     7 ar  
    14     6    45 1   
    15     7    32 ar  
    16     7    46 1   
    17     8    30 2   
    18     8    31 1   
    19     8    32 1   
    20     9    26 1   
    21     9    29 ar  
    22    10    12 ar  
    23    10    22 ar  
    24    10    24 1   
    25    11    21 ar  
    26    11    22 ar  
    27    11    47 1   
    28    12    23 ar  
    29    12    48 1   
    30    13    14 1   
    31    13    18 1   
    32    13    49 1   
    33    13    50 1   
    34    14    20 1   
    35    14    51 1   
    36    14    52 1   
    37    15    16 1   
    38    15    24 1   
    39    15    25 1   
    40    15    53 1   
    41    16    54 1   
    42    16    55 1   
    43    16    56 1   
    44    17    28 ar  
    45    17    29 ar  
    46    17    31 1   
    47    18    19 2   
    48    18    23 1   
    49    18    80 2   
    50    20    21 1   
    51    20    57 1   
    52    20    58 1   
    53    21    23 ar  
    54    22    59 1   
    55    24    26 1   
    56    24    60 1   
    57    25    61 1   
    58    25    62 1   
    59    25    63 1   
    60    26    64 1   
    61    27    28 ar  
    62    27    65 1   
    63    29    30 1   
    64    30    66 1   
    65    31    67 1   
    66    32    33 ar  
    67    33    68 1   
    68    34    35 1   
    69    34    69 1   
    70    34    70 1   
    71    35    38 1   
    72    35    71 1   
    73    35    72 1   
    74    36    37 1   
    75    36    73 1   
    76    36    74 1   
    77    37    38 1   
    78    37    75 1   
    79    37    76 1   
    80    38    39 1   
    81    39    40 2   
    82    39    41 1   
    83    41    77 1   
    84    41    78 1   
    85    41    79 1   
@<TRIPOS>SUBSTRUCTURE
     1 A1A         1 TEMP              0 ****  ****    0 ROOT
