@<TRIPOS>MOLECULE
A1A
   47    50     1     0     0
SMALL
No Charge or Current Charge


@<TRIPOS>ATOM
      1 N1           8.6450    -7.7160    15.2210 nb         1 A1A      -0.308000
      2 N3           4.7260    -8.9240    14.8240 na         1 A1A      -0.315400
      3 C4           8.2550    -8.7530    14.4540 ca         1 A1A       0.432900
      4 C5           7.6640    -7.0580    15.8880 ca         1 A1A       0.174900
      5 C6           5.9710    -8.3710    15.0870 ca         1 A1A       0.143500
      6 C7           4.8230   -10.0200    13.9360 cc         1 A1A      -0.179100
      7 C8           6.1760   -10.1170    13.6640 cd         1 A1A      -0.200200
      8 C10         10.5850    -7.7560    12.4900 ca         1 A1A       0.325300
      9 C13         10.5200    -5.5690    10.7670 ca         1 A1A      -0.050300
     10 C15          9.8610    -5.6590     7.7600 c6         1 A1A      -0.313400
     11 C17         10.5350    -4.3430     9.8360 c6         1 A1A      -0.041100
     12 S            9.4270    -7.1580     8.6750 sy         1 A1A       0.988100
     13 O            7.9580    -7.2010     8.7510 o          1 A1A      -0.506000
     14 C16          9.5880    -4.4040     8.6150 c6         1 A1A      -0.056400
     15 C12         11.0030    -5.4020    12.0800 ca         1 A1A      -0.092000
     16 C11         11.0310    -6.5030    12.9480 ca         1 A1A      -0.084000
     17 C14         10.0840    -6.8660    10.3700 ca         1 A1A       0.186900
     18 N4          10.1170    -7.9330    11.2260 nb         1 A1A      -0.602000
     19 C3          10.5960    -8.9840    13.4360 c3         1 A1A       0.201200
     20 C1          11.4640   -10.1680    12.8950 c3         1 A1A      -0.071700
     21 C2          11.5390   -11.3550    13.8910 c3         1 A1A      -0.087600
     22 C           12.8970    -9.7120    12.5150 c3         1 A1A      -0.087600
     23 N            9.2190    -9.4510    13.7420 nu         1 A1A      -0.908100
     24 C9           6.8990    -9.0920    14.3790 ca         1 A1A      -0.250800
     25 N2           6.3360    -7.3330    15.8610 nb         1 A1A      -0.228000
     26 H1           3.8620    -8.5750    15.2270 hn         1 A1A       0.360000
     27 H10          7.9750    -6.2200    16.5090 h5         1 A1A       0.039100
     28 H11          3.9700   -10.6040    13.5930 h4         1 A1A       0.216000
     29 H12          6.6160   -10.8660    13.0070 ha         1 A1A       0.205000
     30 H15         10.9250    -5.7480     7.5050 h1         1 A1A       0.107200
     31 H16          9.2580    -5.6750     6.8430 h1         1 A1A       0.107200
     32 H19         11.5640    -4.1880     9.4810 hc         1 A1A       0.064700
     33 H20         10.2890    -3.4430    10.4180 hc         1 A1A       0.064700
     34 H18          9.7320    -3.5030     8.0010 hc         1 A1A       0.066700
     35 H17          8.5400    -4.3820     8.9470 hc         1 A1A       0.066700
     36 H14         11.3540    -4.4310    12.4230 ha         1 A1A       0.121000
     37 H13         11.3950    -6.3890    13.9650 ha         1 A1A       0.134000
     38 H           11.0700    -8.6640    14.3750 h1         1 A1A       0.083700
     39 H5          10.9920   -10.5400    11.9770 hc         1 A1A       0.067700
     40 H8          10.5460   -11.7760    14.0880 hc         1 A1A       0.037367
     41 H7          12.1630   -12.1610    13.4880 hc         1 A1A       0.037367
     42 H6          11.9710   -11.0350    14.8470 hc         1 A1A       0.037367
     43 H3          12.8800    -8.9600    11.7170 hc         1 A1A       0.037367
     44 H2          13.4130    -9.2830    13.3820 hc         1 A1A       0.037367
     45 H4          13.4900   -10.5610    12.1520 hc         1 A1A       0.037367
     46 H9           8.8300   -10.1470    13.1100 hn         1 A1A       0.504000
     47 O1          10.1570    -8.2800     8.0600 o          1 A1A      -0.506000
@<TRIPOS>BOND
     1     1     3 ar  
     2     1     4 ar  
     3     2     5 1   
     4     2     6 1   
     5     2    26 1   
     6     3    23 1   
     7     3    24 ar  
     8     4    25 ar  
     9     4    27 1   
    10     5    24 ar  
    11     5    25 ar  
    12     6     7 2   
    13     6    28 1   
    14     7    24 1   
    15     7    29 1   
    16     8    16 ar  
    17     8    18 ar  
    18     8    19 1   
    19     9    11 1   
    20     9    15 ar  
    21     9    17 ar  
    22    10    12 1   
    23    10    14 1   
    24    10    30 1   
    25    10    31 1   
    26    11    14 1   
    27    11    32 1   
    28    11    33 1   
    29    12    13 2   
    30    12    17 1   
    31    12    47 2   
    32    14    34 1   
    33    14    35 1   
    34    15    16 ar  
    35    15    36 1   
    36    16    37 1   
    37    17    18 ar  
    38    19    20 1   
    39    19    23 1   
    40    19    38 1   
    41    20    21 1   
    42    20    22 1   
    43    20    39 1   
    44    21    40 1   
    45    21    41 1   
    46    21    42 1   
    47    22    43 1   
    48    22    44 1   
    49    22    45 1   
    50    23    46 1   
@<TRIPOS>SUBSTRUCTURE
     1 A1A         1 TEMP              0 ****  ****    0 ROOT
