@<TRIPOS>MOLECULE
A1A
   29    29     1     0     0
SMALL
abcg2


@<TRIPOS>ATOM
      1 C4           8.0230    11.7030    24.8380 c3         1 A1A      -0.045800
      2 C5           9.5750    12.7160    23.1340 ca         1 A1A      -0.054000
      3 C6           8.0140    14.4040    22.3280 c          1 A1A       0.565100
      4 C7           7.2450    15.6560    22.7280 c3         1 A1A       0.065600
      5 C8          10.6700    12.6500    22.2690 ca         1 A1A      -0.064300
      6 C10         11.3650    11.4480    22.1780 ca         1 A1A      -0.108500
      7 N            8.8440    13.9200    23.2700 ns         1 A1A      -0.161000
      8 C           11.7600     9.0390    22.7830 c3         1 A1A      -0.045800
      9 O            7.8470    13.8990    21.2300 o          1 A1A      -0.588100
     10 C1          11.0070    10.3300    22.9240 ca         1 A1A      -0.068300
     11 C2           9.9240    10.4360    23.7890 ca         1 A1A      -0.108500
     12 C3           9.1940    11.6140    23.9040 ca         1 A1A      -0.064300
     13 C9          11.1100    13.8360    21.4630 c3         1 A1A      -0.045800
     14 O1           7.5890    16.1920    23.9780 oh         1 A1A      -0.655000
     15 H5           8.1930    12.4310    25.6330 hc         1 A1A       0.044367
     16 H4           7.1160    12.0100    24.3150 hc         1 A1A       0.044367
     17 H6           7.8290    10.7410    25.3100 hc         1 A1A       0.044367
     18 H8           7.3520    16.3810    21.9150 h1         1 A1A       0.074200
     19 H9           6.1880    15.3800    22.7630 h1         1 A1A       0.074200
     20 H14         12.2200    11.3880    21.5120 ha         1 A1A       0.112000
     21 H7           8.8050    14.3610    24.1780 hn         1 A1A       0.165000
     22 H1          11.4080     8.4750    21.9170 hc         1 A1A       0.042700
     23 H2          12.8270     9.2120    22.6420 hc         1 A1A       0.042700
     24 H           11.6330     8.4030    23.6580 hc         1 A1A       0.042700
     25 H3           9.6330     9.5790    24.3870 ha         1 A1A       0.112000
     26 H12         11.1020    14.7510    22.0560 hc         1 A1A       0.044367
     27 H11         12.1200    13.6910    21.0820 hc         1 A1A       0.044367
     28 H13         10.4540    14.0020    20.6080 hc         1 A1A       0.044367
     29 H10          8.3660    16.7500    23.8730 ho         1 A1A       0.448000
@<TRIPOS>BOND
     1     1    12 1   
     2     1    15 1   
     3     1    16 1   
     4     1    17 1   
     5     2     5 ar  
     6     2     7 1   
     7     2    12 ar  
     8     3     4 1   
     9     3     7 1   
    10     3     9 2   
    11     4    14 1   
    12     4    18 1   
    13     4    19 1   
    14     5     6 ar  
    15     5    13 1   
    16     6    10 ar  
    17     6    20 1   
    18     7    21 1   
    19     8    10 1   
    20     8    22 1   
    21     8    23 1   
    22     8    24 1   
    23    10    11 ar  
    24    11    12 ar  
    25    11    25 1   
    26    13    26 1   
    27    13    27 1   
    28    13    28 1   
    29    14    29 1   
@<TRIPOS>SUBSTRUCTURE
     1 A1A         1 TEMP              0 ****  ****    0 ROOT
