@<TRIPOS>MOLECULE
A1A
   30    30     1     0     0
SMALL
abcg2


@<TRIPOS>ATOM
      1 N1          33.5660    24.8980    17.2650 nv         1 A1A      -1.082000
      2 C5          29.7140    23.4200    18.0170 ca         1 A1A      -0.193600
      3 C6          30.8020    22.5580    17.8920 ca         1 A1A      -0.031500
      4 C7          32.0800    23.0410    17.6800 ca         1 A1A      -0.193500
      5 C8          32.3130    24.4170    17.5420 ca         1 A1A       0.317000
      6 C10         29.9440    24.7880    17.8780 ca         1 A1A      -0.031500
      7 N           27.5130    23.2870    19.1040 n          1 A1A      -0.411800
      8 C           25.9010    21.4240    19.6130 c3         1 A1A      -0.112100
      9 O           27.9880    21.9850    17.3290 o          1 A1A      -0.603100
     10 C1          26.1280    22.8330    19.0820 c3         1 A1A       0.105000
     11 C2          27.9050    24.1380    20.2180 c3         1 A1A       0.105000
     12 C3          27.7520    23.4760    21.5790 c3         1 A1A      -0.112100
     13 C9          31.2130    25.2820    17.6400 ca         1 A1A      -0.193500
     14 H12         33.7360    25.8680    17.4750 hn         1 A1A       0.456500
     15 H13         34.3440    24.3040    17.5040 hn         1 A1A       0.456500
     16 H10         30.6550    21.4880    17.9770 ha         1 A1A       0.118500
     17 H11         32.9100    22.3490    17.6090 ha         1 A1A       0.113500
     18 H15         29.1180    25.4860    17.9430 ha         1 A1A       0.118500
     19 H           24.8370    21.1860    19.5700 hc         1 A1A       0.041367
     20 H2          26.4330    20.6840    19.0200 hc         1 A1A       0.041367
     21 H1          26.2190    21.3220    20.6500 hc         1 A1A       0.041367
     22 H4          25.7530    22.9020    18.0600 h1         1 A1A       0.047450
     23 H3          25.5490    23.5470    19.6710 h1         1 A1A       0.047450
     24 H5          28.9440    24.4300    20.0930 h1         1 A1A       0.047450
     25 H6          27.3120    25.0560    20.1870 h1         1 A1A       0.047450
     26 H7          28.1080    24.1590    22.3510 hc         1 A1A       0.041367
     27 H9          26.7150    23.2340    21.8120 hc         1 A1A       0.041367
     28 H8          28.3410    22.5610    21.6390 hc         1 A1A       0.041367
     29 H14         31.3600    26.3490    17.5230 ha         1 A1A       0.113500
     30 C4          28.3430    22.8410    18.1350 c          1 A1A       0.620700
@<TRIPOS>BOND
     1     1     5 1   
     2     1    14 1   
     3     1    15 1   
     4     2     3 ar  
     5     2     6 ar  
     6     2    30 1   
     7     3     4 ar  
     8     3    16 1   
     9     4     5 ar  
    10     4    17 1   
    11     5    13 ar  
    12     6    13 ar  
    13     6    18 1   
    14     7    10 1   
    15     7    11 1   
    16     7    30 1   
    17     8    10 1   
    18     8    19 1   
    19     8    20 1   
    20     8    21 1   
    21     9    30 2   
    22    10    22 1   
    23    10    23 1   
    24    11    12 1   
    25    11    24 1   
    26    11    25 1   
    27    12    26 1   
    28    12    27 1   
    29    12    28 1   
    30    13    29 1   
@<TRIPOS>SUBSTRUCTURE
     1 A1A         1 TEMP              0 ****  ****    0 ROOT
