@<TRIPOS>MOLECULE
A1A
   60    65     1     0     0
SMALL
abcg2


@<TRIPOS>ATOM
      1 N1           5.8400   -14.1770    16.1190 nb         1 A1A      -0.305000
      2 N3           9.5570   -15.6200    15.8080 na         1 A1A      -0.306400
      3 C4           6.2480   -15.1570    16.9280 ca         1 A1A       0.443900
      4 C5           6.6960   -13.6850    15.2250 ca         1 A1A       0.186900
      5 C6           8.3440   -15.0250    15.8140 ca         1 A1A       0.160500
      6 C7           9.5910   -16.6150    16.7630 cc         1 A1A      -0.035300
      7 C8          10.7560   -17.4570    16.9720 cc         1 A1A       0.005200
      8 C10         11.7330   -19.3160    18.1930 cd         1 A1A      -0.088000
      9 C13         11.9100   -17.3120    16.2490 cd         1 A1A      -0.083000
     10 C15          7.5720   -15.6390    16.8060 ca         1 A1A      -0.265800
     11 C17          3.3610   -12.8410    18.1400 ca         1 A1A      -0.027000
     12 C20          3.9780   -12.8090    20.8130 ca         1 A1A      -0.247500
     13 C21          4.1540   -13.9770    20.0780 ca         1 A1A      -0.004000
     14 C22          3.7400   -11.4110    23.2130 c6         1 A1A      -0.305400
     15 C24          3.2830   -10.3470    20.9930 c6         1 A1A      -0.050100
     16 S            4.4410   -12.8970    22.5260 sy         1 A1A       1.049500
     17 O            5.9000   -12.8090    22.5980 o          1 A1A      -0.523000
     18 C23          4.0420   -10.2320    22.3060 c6         1 A1A      -0.055400
     19 C19          3.5100   -11.6290    20.2350 ca         1 A1A       0.013700
     20 C18          3.2030   -11.6800    18.8770 ca         1 A1A      -0.132000
     21 C16          3.8380   -14.0070    18.7290 ca         1 A1A      -0.109300
     22 C3           3.9940   -15.2770    17.9170 c3         1 A1A       0.290800
     23 C1           3.1560   -16.4430    18.4680 c3         1 A1A      -0.072700
     24 C2           1.6900   -16.0400    18.5810 c3         1 A1A      -0.088600
     25 C            3.2940   -17.6810    17.5850 c3         1 A1A      -0.088600
     26 N            5.3860   -15.6690    17.8180 nu         1 A1A      -0.920100
     27 N2           7.9460   -14.0400    15.0060 nb         1 A1A      -0.230000
     28 C14          8.3730   -16.6460    17.4010 cd         1 A1A      -0.169200
     29 C12         12.9950   -18.1800    16.4950 cd         1 A1A      -0.104000
     30 N6          14.1910   -18.2530    15.9470 nc         1 A1A      -0.094000
     31 N5          14.8420   -19.2680    16.5460 nc         1 A1A      -0.349700
     32 C11         14.0670   -19.8060    17.4420 cd         1 A1A       0.318700
     33 N4          12.8740   -19.1530    17.4560 na         1 A1A       0.011200
     34 C9          10.6900   -18.4930    17.9660 cc         1 A1A      -0.133000
     35 H1          10.3000   -15.3700    15.1740 hn         1 A1A       0.367000
     36 H10          6.3060   -12.8880    14.5990 h5         1 A1A       0.044100
     37 H12         11.7300   -20.1080    18.9260 h4         1 A1A       0.150000
     38 H14         12.0440   -16.5620    15.4830 ha         1 A1A       0.142000
     39 H16          3.1100   -12.8410    17.0870 ha         1 A1A       0.127000
     40 H18          4.5260   -14.8710    20.5660 ha         1 A1A       0.125000
     41 H20          2.6670   -11.5750    23.3230 h1         1 A1A       0.106700
     42 H19          4.1840   -11.3120    24.2060 h1         1 A1A       0.106700
     43 H23          2.2100   -10.2550    21.1950 hc         1 A1A       0.064700
     44 H24          3.5390    -9.5070    20.3450 hc         1 A1A       0.064700
     45 H21          3.7440    -9.3160    22.8180 hc         1 A1A       0.066200
     46 H22          5.1170   -10.1540    22.1310 hc         1 A1A       0.066200
     47 H17          2.8360   -10.7840    18.3900 ha         1 A1A       0.117000
     48 H            3.6380   -15.0710    16.9040 h1         1 A1A       0.083700
     49 H5           3.5240   -16.6900    19.4710 hc         1 A1A       0.050700
     50 H6           1.5380   -15.2080    19.2680 hc         1 A1A       0.039367
     51 H7           1.2900   -15.7490    17.6070 hc         1 A1A       0.039367
     52 H8           1.0950   -16.8790    18.9440 hc         1 A1A       0.039367
     53 H2           4.3170   -18.0530    17.5390 hc         1 A1A       0.039367
     54 H4           2.6710   -18.4900    17.9690 hc         1 A1A       0.039367
     55 H3           2.9690   -17.4680    16.5640 hc         1 A1A       0.039367
     56 H9           5.7280   -16.3690    18.4570 hn         1 A1A       0.499000
     57 H15          8.0860   -17.3160    18.1960 ha         1 A1A       0.200000
     58 H13         14.3010   -20.6370    18.0870 h5         1 A1A       0.078800
     59 H11          9.7960   -18.6360    18.5550 ha         1 A1A       0.136000
     60 O1           3.8020   -14.0630    23.1320 o          1 A1A      -0.523000
@<TRIPOS>BOND
     1     1     3 ar  
     2     1     4 ar  
     3     2     5 1   
     4     2     6 1   
     5     2    35 1   
     6     3    10 ar  
     7     3    26 1   
     8     4    27 ar  
     9     4    36 1   
    10     5    10 ar  
    11     5    27 ar  
    12     6     7 1   
    13     6    28 2   
    14     7     9 2   
    15     7    34 1   
    16     8    33 1   
    17     8    34 2   
    18     8    37 1   
    19     9    29 1   
    20     9    38 1   
    21    10    28 1   
    22    11    20 ar  
    23    11    21 ar  
    24    11    39 1   
    25    12    13 ar  
    26    12    16 1   
    27    12    19 ar  
    28    13    21 ar  
    29    13    40 1   
    30    14    16 1   
    31    14    18 1   
    32    14    41 1   
    33    14    42 1   
    34    15    18 1   
    35    15    19 1   
    36    15    43 1   
    37    15    44 1   
    38    16    17 2   
    39    16    60 2   
    40    18    45 1   
    41    18    46 1   
    42    19    20 ar  
    43    20    47 1   
    44    21    22 1   
    45    22    23 1   
    46    22    26 1   
    47    22    48 1   
    48    23    24 1   
    49    23    25 1   
    50    23    49 1   
    51    24    50 1   
    52    24    51 1   
    53    24    52 1   
    54    25    53 1   
    55    25    54 1   
    56    25    55 1   
    57    26    56 1   
    58    28    57 1   
    59    29    30 2   
    60    29    33 1   
    61    30    31 1   
    62    31    32 2   
    63    32    33 1   
    64    32    58 1   
    65    34    59 1   
@<TRIPOS>SUBSTRUCTURE
     1 A1A         1 TEMP              0 ****  ****    0 ROOT
