@<TRIPOS>MOLECULE
A1A
   50    53     1     0     0
SMALL
abcg2


@<TRIPOS>ATOM
      1 N1           5.7050   -14.3140    15.9200 nb         1 A1A      -0.271000
      2 C4           6.1670   -15.3480    16.6280 ca         1 A1A       0.407900
      3 C5           6.5330   -13.7590    15.0500 ca         1 A1A       0.170900
      4 C6           8.2600   -15.1070    15.5310 ca         1 A1A       0.318300
      5 C7           7.4950   -15.7800    16.4620 ca         1 A1A      -0.145900
      6 C8           9.0970   -17.4310    16.5940 c6         1 A1A       0.116600
      7 C10          3.9450   -14.3270    18.6200 ca         1 A1A      -0.109300
      8 C13          3.8370   -12.0350    20.2790 ca         1 A1A       0.012700
      9 C15          4.5450   -14.3310    19.8680 ca         1 A1A      -0.005000
     10 C17          4.7800   -10.6940    22.2300 c6         1 A1A      -0.055400
     11 S            5.3060   -13.3480    22.2460 sy         1 A1A       1.048500
     12 O2           4.8340   -14.5630    22.9090 o          1 A1A      -0.523000
     13 C16          4.7450   -11.9110    23.1390 c6         1 A1A      -0.305400
     14 C18          3.7370   -10.7950    21.1280 c6         1 A1A      -0.049100
     15 C12          3.2390   -12.0520    19.0200 ca         1 A1A      -0.132000
     16 C11          3.2920   -13.1700    18.2070 ca         1 A1A      -0.030000
     17 C14          4.4810   -13.2040    20.6800 ca         1 A1A      -0.245500
     18 C3           3.9850   -15.5600    17.7430 c3         1 A1A       0.292800
     19 C1           3.1870   -16.7310    18.3420 c3         1 A1A      -0.071700
     20 C2           1.7580   -16.3040    18.6600 c3         1 A1A      -0.088100
     21 C            3.1730   -17.9270    17.3930 c3         1 A1A      -0.088100
     22 N            5.3490   -15.9720    17.4920 nu         1 A1A      -0.925100
     23 O            7.9520   -16.8350    17.1830 os         1 A1A      -0.327100
     24 C9          10.0980   -16.3610    16.2210 c6         1 A1A       0.118600
     25 O1           9.5330   -15.4410    15.2900 os         1 A1A      -0.427300
     26 N2           7.7830   -14.0960    14.8090 nb         1 A1A      -0.215000
     27 H9           6.1350   -12.9320    14.4720 h5         1 A1A       0.050100
     28 H10          9.5290   -18.1080    17.3300 h1         1 A1A       0.068200
     29 H11          8.8070   -18.0130    15.7130 h1         1 A1A       0.068200
     30 H16          5.0630   -15.2210    20.2120 ha         1 A1A       0.128000
     31 H19          4.5870    -9.8080    22.8350 hc         1 A1A       0.065200
     32 H20          5.7790   -10.5690    21.8070 hc         1 A1A       0.065200
     33 H18          3.7370   -12.1200    23.5020 h1         1 A1A       0.106200
     34 H17          5.4150   -11.8200    23.9960 h1         1 A1A       0.106200
     35 H21          2.7380   -10.7590    21.5750 hc         1 A1A       0.064200
     36 H22          3.8110    -9.9210    20.4790 hc         1 A1A       0.064200
     37 H15          2.7310   -11.1610    18.6710 ha         1 A1A       0.116000
     38 H14          2.8200   -13.1450    17.2320 ha         1 A1A       0.124000
     39 H            3.5210   -15.3060    16.7850 h1         1 A1A       0.079700
     40 H4           3.6740   -17.0300    19.2790 hc         1 A1A       0.052700
     41 H5           1.7150   -15.4900    19.3830 hc         1 A1A       0.038867
     42 H6           1.2410   -15.9760    17.7550 hc         1 A1A       0.038867
     43 H7           1.1970   -17.1420    19.0730 hc         1 A1A       0.038867
     44 H1           4.1700   -18.3110    17.1820 hc         1 A1A       0.038867
     45 H3           2.5920   -18.7440    17.8240 hc         1 A1A       0.038867
     46 H2           2.7080   -17.6550    16.4430 hc         1 A1A       0.038867
     47 H8           5.7320   -16.7120    18.0590 hn         1 A1A       0.511000
     48 H13         10.4280   -15.8210    17.1130 h1         1 A1A       0.074200
     49 H12         10.9710   -16.8020    15.7420 h1         1 A1A       0.074200
     50 O3           6.7440   -13.2220    22.0120 o          1 A1A      -0.523000
@<TRIPOS>BOND
     1     1     2 ar  
     2     1     3 ar  
     3     2     5 ar  
     4     2    22 1   
     5     3    26 ar  
     6     3    27 1   
     7     4     5 ar  
     8     4    25 1   
     9     4    26 ar  
    10     5    23 1   
    11     6    23 1   
    12     6    24 1   
    13     6    28 1   
    14     6    29 1   
    15     7     9 ar  
    16     7    16 ar  
    17     7    18 1   
    18     8    14 1   
    19     8    15 ar  
    20     8    17 ar  
    21     9    17 ar  
    22     9    30 1   
    23    10    13 1   
    24    10    14 1   
    25    10    31 1   
    26    10    32 1   
    27    11    12 2   
    28    11    13 1   
    29    11    17 1   
    30    11    50 2   
    31    13    33 1   
    32    13    34 1   
    33    14    35 1   
    34    14    36 1   
    35    15    16 ar  
    36    15    37 1   
    37    16    38 1   
    38    18    19 1   
    39    18    22 1   
    40    18    39 1   
    41    19    20 1   
    42    19    21 1   
    43    19    40 1   
    44    20    41 1   
    45    20    42 1   
    46    20    43 1   
    47    21    44 1   
    48    21    45 1   
    49    21    46 1   
    50    22    47 1   
    51    24    25 1   
    52    24    48 1   
    53    24    49 1   
@<TRIPOS>SUBSTRUCTURE
     1 A1A         1 TEMP              0 ****  ****    0 ROOT
