@<TRIPOS>MOLECULE
A1A
   29    30     1     0     0
SMALL
No Charge or Current Charge


@<TRIPOS>ATOM
      1 C4          10.8950    10.8580    23.8520 ca         1 A1A      -0.074000
      2 C5          11.5460    11.8540    24.6100 ca         1 A1A      -0.161600
      3 C6          13.0070    11.7060    24.9160 c          1 A1A       0.548700
      4 C7          13.9930    12.7150    24.2440 c3         1 A1A       0.109800
      5 C8          16.2780    12.0430    25.1360 c5         1 A1A       0.181300
      6 C10         16.5970    13.8410    26.7570 c5         1 A1A      -0.078900
      7 N           15.2670    13.1050    24.9450 n3         1 A1A      -0.755600
      8 C           10.8060    12.9610    25.0790 ca         1 A1A       0.142000
      9 O           13.3860    10.7910    25.6420 o          1 A1A      -0.498100
     10 C1           9.4390    13.0750    24.7740 ca         1 A1A      -0.104000
     11 C11         15.1190    13.6870    26.2970 c5         1 A1A       0.181300
     12 C2           8.7990    12.0880    24.0060 ca         1 A1A      -0.091000
     13 C3           9.5280    10.9780    23.5480 ca         1 A1A      -0.109000
     14 C9          17.3910    12.8480    25.8490 c5         1 A1A      -0.078900
     15 Cl          11.5510    14.1990    26.0870 cl         1 A1A      -0.199000
     16 H3          11.4510     9.9940    23.4930 ha         1 A1A       0.123000
     17 H5          14.2280    12.2920    23.2590 h1         1 A1A       0.074200
     18 H4          13.4110    13.6220    24.0390 h1         1 A1A       0.074200
     19 H6          16.6230    11.6090    24.1880 h1         1 A1A       0.040450
     20 H10         16.7060    13.6070    27.8220 hc         1 A1A       0.045450
     21 H11         16.9520    14.8690    26.6160 hc         1 A1A       0.045450
     22 H            8.8730    13.9290    25.1400 ha         1 A1A       0.132000
     23 H13         14.5740    13.0070    26.9680 h1         1 A1A       0.040450
     24 H12         14.5890    14.6490    26.2850 h1         1 A1A       0.040450
     25 H1           7.7410    12.1790    23.7720 ha         1 A1A       0.120000
     26 H2           9.0330    10.2090    22.9580 ha         1 A1A       0.121000
     27 H9          18.0660    12.2010    26.4200 hc         1 A1A       0.045450
     28 H8          18.0030    13.3920    25.1200 hc         1 A1A       0.045450
     29 H7          15.9090    11.2290    25.7760 h1         1 A1A       0.040450
@<TRIPOS>BOND
     1     1     2 ar  
     2     1    13 ar  
     3     1    16 1   
     4     2     3 1   
     5     2     8 ar  
     6     3     4 1   
     7     3     9 2   
     8     4     7 1   
     9     4    17 1   
    10     4    18 1   
    11     5     7 1   
    12     5    14 1   
    13     5    19 1   
    14     5    29 1   
    15     6    11 1   
    16     6    14 1   
    17     6    20 1   
    18     6    21 1   
    19     7    11 1   
    20     8    10 ar  
    21     8    15 1   
    22    10    12 ar  
    23    10    22 1   
    24    11    23 1   
    25    11    24 1   
    26    12    13 ar  
    27    12    25 1   
    28    13    26 1   
    29    14    27 1   
    30    14    28 1   
@<TRIPOS>SUBSTRUCTURE
     1 A1A         1 TEMP              0 ****  ****    0 ROOT
