@<TRIPOS>MOLECULE
A1A
   56    59     1     0     0
SMALL
abcg2


@<TRIPOS>ATOM
      1 N1           9.4200    -9.7760    13.7670 nu         1 A1A      -0.916100
      2 N3           6.4360    -7.8380    15.8750 nb         1 A1A      -0.231000
      3 C4           8.4260    -9.1750    14.4320 ca         1 A1A       0.447900
      4 C5          10.7520    -9.2140    13.6490 c3         1 A1A       0.288800
      5 C6          10.7480    -7.9900    12.7590 ca         1 A1A      -0.108300
      6 C7          11.3460    -6.8030    13.1700 ca         1 A1A      -0.029000
      7 C8          11.3730    -5.6940    12.3450 ca         1 A1A      -0.130000
      8 C10         10.1910    -6.9070    10.6850 ca         1 A1A      -0.246500
      9 C13          9.8870    -4.4260     9.0610 c6         1 A1A      -0.056400
     10 C15         11.7260   -10.2950    13.1550 c3         1 A1A      -0.071700
     11 C17         13.1250    -9.7180    12.9640 c3         1 A1A      -0.088600
     12 S1           9.3290    -7.0650     9.1420 sy         1 A1A       1.049500
     13 O2           7.9040    -6.8540     9.3980 o          1 A1A      -0.524000
     14 C12          9.9410    -5.6800     8.2030 c6         1 A1A      -0.304400
     15 C14         10.8920    -4.4910    10.2010 c6         1 A1A      -0.050100
     16 C9          10.7920    -5.7120    11.0770 ca         1 A1A       0.014700
     17 C11         10.1660    -8.0310    11.5040 ca         1 A1A      -0.009000
     18 C16         11.7720   -11.4710    14.1270 c3         1 A1A      -0.088600
     19 N2           8.6920    -8.0760    15.1360 nb         1 A1A      -0.307000
     20 C18          7.7010    -7.4840    15.8040 ca         1 A1A       0.196900
     21 C19          6.1760    -8.9440    15.1730 ca         1 A1A       0.175500
     22 C3           7.1040    -9.6800    14.4250 ca         1 A1A      -0.283800
     23 C2           6.4160   -10.7740    13.8400 cc         1 A1A      -0.064200
     24 N4           4.9740    -9.5480    15.0540 na         1 A1A      -0.261400
     25 C1           5.1180   -10.6480    14.2460 cd         1 A1A      -0.276200
     26 S            3.7780   -11.7450    14.0000 sy         1 A1A       1.180200
     27 O            2.5770   -10.9630    14.2620 o          1 A1A      -0.545000
     28 O1           3.9920   -12.9660    14.7570 o          1 A1A      -0.545000
     29 N            3.9670   -12.1340    12.4200 n7         1 A1A      -0.895300
     30 C            3.5450   -11.1750    11.4090 c3         1 A1A       0.187100
     31 H7           9.1880   -10.5610    13.1780 hn         1 A1A       0.498000
     32 H           11.0790    -8.9040    14.6460 h1         1 A1A       0.084700
     33 H8          11.7980    -6.7480    14.1530 ha         1 A1A       0.123000
     34 H9          11.8460    -4.7820    12.6900 ha         1 A1A       0.117000
     35 H14         10.1130    -3.5670     8.4290 hc         1 A1A       0.066700
     36 H13          8.8750    -4.2720     9.4410 hc         1 A1A       0.066700
     37 H17         11.3690   -10.6570    12.1820 hc         1 A1A       0.051700
     38 H23         13.8240   -10.5090    12.6920 hc         1 A1A       0.039533
     39 H21         13.1620    -8.9650    12.1780 hc         1 A1A       0.039533
     40 H22         13.4860    -9.2580    13.8860 hc         1 A1A       0.039533
     41 H11         10.9580    -5.9160     7.8870 h1         1 A1A       0.106700
     42 H12          9.3020    -5.6180     7.3190 h1         1 A1A       0.106700
     43 H15         11.9030    -4.4590     9.7810 hc         1 A1A       0.064700
     44 H16         10.7970    -3.6010    10.8250 hc         1 A1A       0.064700
     45 H10          9.6920    -8.9430    11.1590 ha         1 A1A       0.126000
     46 H20         12.4820   -12.2220    13.7800 hc         1 A1A       0.039533
     47 H19         12.0960   -11.1370    15.1160 hc         1 A1A       0.039533
     48 H18         10.8070   -11.9630    14.2410 hc         1 A1A       0.039533
     49 H24          7.9820    -6.5930    16.3570 h5         1 A1A       0.045100
     50 H6           6.8090   -11.5470    13.1990 ha         1 A1A       0.213000
     51 H1           4.1120    -9.2300    15.4740 hn         1 A1A       0.386000
     52 H5           3.6940   -13.0950    12.2410 hn         1 A1A       0.493000
     53 H2           3.8600   -11.5560    10.4410 h1         1 A1A       0.053700
     54 H3           2.4670   -11.0120    11.3900 h1         1 A1A       0.053700
     55 H4           4.0460   -10.2210    11.5660 h1         1 A1A       0.053700
     56 O3           9.7210    -8.3260     8.5150 o          1 A1A      -0.524000
@<TRIPOS>BOND
     1     1     3 1   
     2     1     4 1   
     3     1    31 1   
     4     2    20 ar  
     5     2    21 ar  
     6     3    19 ar  
     7     3    22 ar  
     8     4     5 1   
     9     4    10 1   
    10     4    32 1   
    11     5     6 ar  
    12     5    17 ar  
    13     6     7 ar  
    14     6    33 1   
    15     7    16 ar  
    16     7    34 1   
    17     8    12 1   
    18     8    16 ar  
    19     8    17 ar  
    20     9    14 1   
    21     9    15 1   
    22     9    35 1   
    23     9    36 1   
    24    10    11 1   
    25    10    18 1   
    26    10    37 1   
    27    11    38 1   
    28    11    39 1   
    29    11    40 1   
    30    12    13 2   
    31    12    14 1   
    32    12    56 2   
    33    14    41 1   
    34    14    42 1   
    35    15    16 1   
    36    15    43 1   
    37    15    44 1   
    38    17    45 1   
    39    18    46 1   
    40    18    47 1   
    41    18    48 1   
    42    19    20 ar  
    43    20    49 1   
    44    21    22 ar  
    45    21    24 1   
    46    22    23 1   
    47    23    25 2   
    48    23    50 1   
    49    24    25 1   
    50    24    51 1   
    51    25    26 1   
    52    26    27 2   
    53    26    28 2   
    54    26    29 1   
    55    29    30 1   
    56    29    52 1   
    57    30    53 1   
    58    30    54 1   
    59    30    55 1   
@<TRIPOS>SUBSTRUCTURE
     1 A1A         1 TEMP              0 ****  ****    0 ROOT
