@<TRIPOS>MOLECULE
A1A
   30    31     1     0     0
SMALL
abcg2


@<TRIPOS>ATOM
      1 C4          28.1470    22.5030    17.6280 c3         1 A1A      -0.028100
      2 C5          27.5740    22.3550    19.0410 c6         1 A1A      -0.061700
      3 C6          26.1410    21.8270    18.9980 c6         1 A1A      -0.072400
      4 C7          25.5310    21.7580    20.3940 c6         1 A1A      -0.073400
      5 C8          25.6560    23.1010    21.0960 c6         1 A1A       0.159800
      6 C10         30.5990    22.0560    17.9640 ca         1 A1A      -0.083000
      7 N           27.0510    23.5030    21.1370 n7         1 A1A      -0.863400
      8 C           32.2280    23.7740    17.7320 ca         1 A1A       0.167000
      9 C1          31.2560    24.6860    17.3750 ca         1 A1A      -0.150000
     10 C11         31.9250    22.4580    18.0230 ca         1 A1A      -0.150000
     11 C2          29.9350    24.2590    17.3230 ca         1 A1A      -0.083000
     12 C3          29.5830    22.9460    17.6200 ca         1 A1A      -0.091300
     13 C9          27.6080    23.6740    19.8080 c6         1 A1A       0.162800
     14 H2          27.5370    23.2160    17.0660 hc         1 A1A       0.048200
     15 H3          28.0550    21.5420    17.1130 hc         1 A1A       0.048200
     16 H4          28.1930    21.6340    19.5900 hc         1 A1A       0.063700
     17 H5          25.5380    22.4970    18.3740 hc         1 A1A       0.037200
     18 H6          26.1170    20.8450    18.5170 hc         1 A1A       0.037200
     19 H8          24.4800    21.4660    20.3370 hc         1 A1A       0.046700
     20 H7          26.0440    20.9930    20.9850 hc         1 A1A       0.046700
     21 H10         25.0220    23.8350    20.5710 h1         1 A1A       0.027700
     22 H9          25.2790    23.0310    22.1190 h1         1 A1A       0.027700
     23 H14         30.3530    21.0250    18.1920 ha         1 A1A       0.115500
     24 H11         27.1400    24.3680    21.6520 hn         1 A1A       0.412000
     25 H           31.5200    25.7100    17.1450 ha         1 A1A       0.131000
     26 H15         32.7080    21.7600    18.2910 ha         1 A1A       0.131000
     27 H1          29.1650    24.9700    17.0480 ha         1 A1A       0.115500
     28 H13         27.0690    24.4340    19.2140 h1         1 A1A       0.030700
     29 H12         28.6370    24.0270    19.9080 h1         1 A1A       0.030700
     30 F           33.5090    24.1780    17.7950 f          1 A1A      -0.181000
@<TRIPOS>BOND
     1     1     2 1   
     2     1    12 1   
     3     1    14 1   
     4     1    15 1   
     5     2     3 1   
     6     2    13 1   
     7     2    16 1   
     8     3     4 1   
     9     3    17 1   
    10     3    18 1   
    11     4     5 1   
    12     4    19 1   
    13     4    20 1   
    14     5     7 1   
    15     5    21 1   
    16     5    22 1   
    17     6    10 ar  
    18     6    12 ar  
    19     6    23 1   
    20     7    13 1   
    21     7    24 1   
    22     8     9 ar  
    23     8    10 ar  
    24     8    30 1   
    25     9    11 ar  
    26     9    25 1   
    27    10    26 1   
    28    11    12 ar  
    29    11    27 1   
    30    13    28 1   
    31    13    29 1   
@<TRIPOS>SUBSTRUCTURE
     1 A1A         1 TEMP              0 ****  ****    0 ROOT
