@<TRIPOS>MOLECULE
A1A
   60    65     1     0     0
SMALL
No Charge or Current Charge


@<TRIPOS>ATOM
      1 N1           5.5600   -14.0430    15.8250 nb         1 A1A      -0.305000
      2 N3           9.4930   -15.2650    15.9240 na         1 A1A      -0.306400
      3 C4           5.9980   -15.0940    16.5460 ca         1 A1A       0.443900
      4 C5           6.4950   -13.3740    15.1070 ca         1 A1A       0.186900
      5 C6           8.2340   -14.7070    15.7630 ca         1 A1A       0.160500
      6 C7           9.4420   -16.3720    16.7950 cc         1 A1A      -0.035300
      7 C8          10.5590   -17.1980    17.1960 cc         1 A1A       0.005200
      8 C10         11.4160   -19.1470    18.5260 cd         1 A1A      -0.088000
      9 C13         11.8240   -16.9150    16.7050 cd         1 A1A      -0.083000
     10 C15          7.3520   -15.4400    16.5200 ca         1 A1A      -0.265800
     11 C17          3.1220   -12.9920    18.0880 ca         1 A1A      -0.027000
     12 C20          4.3740   -13.0670    20.6060 ca         1 A1A      -0.247500
     13 C21          4.3560   -14.2120    19.7840 ca         1 A1A      -0.004000
     14 C22          4.7050   -11.6890    23.0740 c6         1 A1A      -0.305400
     15 C24          3.7080   -10.5800    21.0090 c6         1 A1A      -0.050100
     16 S            5.2100   -13.1820    22.1970 sy         1 A1A       1.049500
     17 O            6.6540   -13.0800    21.9450 o          1 A1A      -0.523000
     18 C23          4.7600   -10.4650    22.1360 c6         1 A1A      -0.055400
     19 C19          3.7640   -11.8660    20.1640 ca         1 A1A       0.013700
     20 C18          3.1380   -11.8490    18.9030 ca         1 A1A      -0.132000
     21 C16          3.7290   -14.1840    18.5230 ca         1 A1A      -0.109300
     22 C3           3.7030   -15.4270    17.6290 c3         1 A1A       0.290800
     23 C1           2.9410   -16.6280    18.2730 c3         1 A1A      -0.072700
     24 C2           1.5280   -16.2240    18.7690 c3         1 A1A      -0.088600
     25 C            2.8360   -17.8420    17.3140 c3         1 A1A      -0.088600
     26 N            5.0830   -15.8110    17.3010 nu         1 A1A      -0.920100
     27 N2           7.8200   -13.6530    15.0370 nb         1 A1A      -0.230000
     28 C14          8.1130   -16.4840    17.1670 cd         1 A1A      -0.169200
     29 C12         12.8720   -17.7750    17.1480 cd         1 A1A      -0.104000
     30 N6          14.1570   -17.7390    16.8440 nc         1 A1A      -0.094000
     31 N5          14.7690   -18.7980    17.5350 nc         1 A1A      -0.349700
     32 C11         13.8350   -19.4460    18.2390 cd         1 A1A       0.318700
     33 N4          12.6590   -18.8050    17.9940 na         1 A1A       0.011200
     34 C9          10.3790   -18.3180    18.1050 cc         1 A1A      -0.133000
     35 H1          10.3270   -14.9120    15.4710 hn         1 A1A       0.367000
     36 H10          6.1450   -12.5240    14.5240 h5         1 A1A       0.044100
     37 H12         11.3370   -19.9930    19.2000 h4         1 A1A       0.150000
     38 H14         12.0250   -16.0940    16.0250 ha         1 A1A       0.142000
     39 H16          2.6340   -12.9480    17.1160 ha         1 A1A       0.127000
     40 H18          4.8350   -15.1280    20.1230 ha         1 A1A       0.125000
     41 H20          3.6850   -11.8740    23.4340 h1         1 A1A       0.106700
     42 H19          5.3880   -11.5900    23.9260 h1         1 A1A       0.106700
     43 H23          2.7040   -10.4980    21.4480 hc         1 A1A       0.064700
     44 H24          3.8110    -9.7080    20.3480 hc         1 A1A       0.064700
     45 H21          4.5720    -9.5480    22.7140 hc         1 A1A       0.066200
     46 H22          5.7650   -10.3550    21.7040 hc         1 A1A       0.066200
     47 H17          2.6560   -10.9410    18.5500 ha         1 A1A       0.117000
     48 H            3.1730   -15.1730    16.6980 h1         1 A1A       0.083700
     49 H5           3.5050   -16.9570    19.1540 hc         1 A1A       0.050700
     50 H6           1.5830   -15.4520    19.5460 hc         1 A1A       0.039367
     51 H7           0.9210   -15.8360    17.9420 hc         1 A1A       0.039367
     52 H8           1.0070   -17.0870    19.2000 hc         1 A1A       0.039367
     53 H2           3.8280   -18.2140    17.0290 hc         1 A1A       0.039367
     54 H4           2.2990   -18.6700    17.7930 hc         1 A1A       0.039367
     55 H3           2.2970   -17.5700    16.3980 hc         1 A1A       0.039367
     56 H9           5.4710   -16.6100    17.7940 hn         1 A1A       0.499000
     57 H15          7.7080   -17.2350    17.8390 ha         1 A1A       0.200000
     58 H13         13.9430   -20.3070    18.8850 h5         1 A1A       0.078800
     59 H11          9.3840   -18.5250    18.4790 ha         1 A1A       0.136000
     60 O1           4.6700   -14.3430    22.9160 o          1 A1A      -0.523000
@<TRIPOS>BOND
     1     1     3 ar  
     2     1     4 ar  
     3     2     5 1   
     4     2     6 1   
     5     2    35 1   
     6     3    10 ar  
     7     3    26 1   
     8     4    27 ar  
     9     4    36 1   
    10     5    10 ar  
    11     5    27 ar  
    12     6     7 1   
    13     6    28 2   
    14     7     9 2   
    15     7    34 1   
    16     8    33 1   
    17     8    34 2   
    18     8    37 1   
    19     9    29 1   
    20     9    38 1   
    21    10    28 1   
    22    11    20 ar  
    23    11    21 ar  
    24    11    39 1   
    25    12    13 ar  
    26    12    16 1   
    27    12    19 ar  
    28    13    21 ar  
    29    13    40 1   
    30    14    16 1   
    31    14    18 1   
    32    14    41 1   
    33    14    42 1   
    34    15    18 1   
    35    15    19 1   
    36    15    43 1   
    37    15    44 1   
    38    16    17 2   
    39    16    60 2   
    40    18    45 1   
    41    18    46 1   
    42    19    20 ar  
    43    20    47 1   
    44    21    22 1   
    45    22    23 1   
    46    22    26 1   
    47    22    48 1   
    48    23    24 1   
    49    23    25 1   
    50    23    49 1   
    51    24    50 1   
    52    24    51 1   
    53    24    52 1   
    54    25    53 1   
    55    25    54 1   
    56    25    55 1   
    57    26    56 1   
    58    28    57 1   
    59    29    30 2   
    60    29    33 1   
    61    30    31 1   
    62    31    32 2   
    63    32    33 1   
    64    32    58 1   
    65    34    59 1   
@<TRIPOS>SUBSTRUCTURE
     1 A1A         1 TEMP              0 ****  ****    0 ROOT
