@<TRIPOS>MOLECULE
A1A
   28    29     1     0     0
SMALL
No Charge or Current Charge


@<TRIPOS>ATOM
      1 N1           7.4470    13.2270    24.4860 nv         1 A1A      -1.027000
      2 N3           6.0770     9.7150    26.8810 ns         1 A1A      -0.478900
      3 C4           6.3240    10.9250    26.2610 c          1 A1A       0.544600
      4 C5           5.0510     9.4940    27.8590 cy         1 A1A       0.093700
      5 C6           4.9440     8.0960    28.5520 cy         1 A1A      -0.107400
      6 C7           3.4230     8.4210    28.7160 cy         1 A1A      -0.092400
      7 C8           3.5820     9.2320    27.3880 cy         1 A1A      -0.107400
      8 N            9.0650    10.1460    24.0750 na         1 A1A       0.164800
      9 C           10.0300     9.1770    23.5390 c3         1 A1A       0.069900
     10 O            5.6670    11.9300    26.5220 o          1 A1A      -0.622100
     11 C1           8.9620    11.4870    23.7210 cc         1 A1A      -0.267000
     12 C2           7.9360    11.9470    24.4800 cd         1 A1A       0.228000
     13 C3           7.4560    10.8610    25.2700 cd         1 A1A       0.142500
     14 N2           8.1470     9.7470    25.0250 nc         1 A1A      -0.510800
     15 H4           6.7080    13.4830    25.1420 hn         1 A1A       0.451000
     16 H5           7.9090    13.9680    23.9600 hn         1 A1A       0.451000
     17 H6           6.6820     8.9520    26.5930 hn         1 A1A       0.326500
     18 H7           5.1100    10.3090    28.5940 h1         1 A1A       0.084700
     19 H9           5.1600     7.2420    27.8980 hc         1 A1A       0.054450
     20 H8           5.5130     7.9780    29.4810 hc         1 A1A       0.054450
     21 H11          2.7410     7.5650    28.6780 hc         1 A1A       0.051700
     22 H10          3.1770     9.0280    29.5960 hc         1 A1A       0.051700
     23 H13          3.4950     8.6340    26.4730 hc         1 A1A       0.054450
     24 H12          2.9480    10.1190    27.2880 hc         1 A1A       0.054450
     25 H1           9.4910     8.3540    23.0550 h1         1 A1A       0.059367
     26 H           10.6780     9.6680    22.8030 h1         1 A1A       0.059367
     27 H2          10.6440     8.7810    24.3560 h1         1 A1A       0.059367
     28 H3           9.6000    11.9680    22.9930 h4         1 A1A       0.159000
@<TRIPOS>BOND
     1     1    12 1   
     2     1    15 1   
     3     1    16 1   
     4     2     3 1   
     5     2     4 1   
     6     2    17 1   
     7     3    10 2   
     8     3    13 1   
     9     4     5 1   
    10     4     7 1   
    11     4    18 1   
    12     5     6 1   
    13     5    19 1   
    14     5    20 1   
    15     6     7 1   
    16     6    21 1   
    17     6    22 1   
    18     7    23 1   
    19     7    24 1   
    20     8     9 1   
    21     8    11 1   
    22     8    14 1   
    23     9    25 1   
    24     9    26 1   
    25     9    27 1   
    26    11    12 2   
    27    11    28 1   
    28    12    13 1   
    29    13    14 2   
@<TRIPOS>SUBSTRUCTURE
     1 A1A         1 TEMP              0 ****  ****    0 ROOT
