@<TRIPOS>MOLECULE
A1A
   30    30     1     0     0
SMALL
No Charge or Current Charge


@<TRIPOS>ATOM
      1 N1          33.5850    25.0300    17.3620 nv         1 A1A      -1.082000
      2 C5          29.7690    23.3800    17.8820 ca         1 A1A      -0.193600
      3 C6          30.8660    22.5580    17.5520 ca         1 A1A      -0.031500
      4 C7          32.1470    23.1140    17.3850 ca         1 A1A      -0.193500
      5 C8          32.3400    24.4930    17.5260 ca         1 A1A       0.317000
      6 C10         29.9680    24.7740    17.9900 ca         1 A1A      -0.031500
      7 N           27.5750    23.1080    19.1310 n          1 A1A      -0.411800
      8 C           25.8720    21.3260    19.7540 c3         1 A1A      -0.112100
      9 O           28.0100    21.9600    17.1820 o          1 A1A      -0.603100
     10 C1          26.1430    22.7060    19.1220 c3         1 A1A       0.105000
     11 C2          28.1040    23.9170    20.2700 c3         1 A1A       0.105000
     12 C3          27.4110    23.7550    21.6400 c3         1 A1A      -0.112100
     13 C9          31.2510    25.3220    17.8200 ca         1 A1A      -0.193500
     14 H12         33.7510    26.0020    17.6160 hn         1 A1A       0.456500
     15 H13         34.3960    24.4170    17.3030 hn         1 A1A       0.456500
     16 H10         30.7290    21.4840    17.4370 ha         1 A1A       0.118500
     17 H11         32.9850    22.4660    17.1430 ha         1 A1A       0.113500
     18 H15         29.1290    25.4410    18.1750 ha         1 A1A       0.118500
     19 H           24.8070    21.0790    19.6760 hc         1 A1A       0.041367
     20 H2          26.4420    20.5460    19.2350 hc         1 A1A       0.041367
     21 H1          26.1470    21.3070    20.8130 hc         1 A1A       0.041367
     22 H4          25.7820    22.6930    18.0850 h1         1 A1A       0.047450
     23 H3          25.5450    23.4660    19.6390 h1         1 A1A       0.047450
     24 H5          29.1660    23.6780    20.4100 h1         1 A1A       0.047450
     25 H6          28.0330    24.9770    19.9960 h1         1 A1A       0.047450
     26 H7          27.9000    24.4010    22.3790 hc         1 A1A       0.041367
     27 H9          26.3540    24.0410    21.6010 hc         1 A1A       0.041367
     28 H8          27.4930    22.7230    21.9990 hc         1 A1A       0.041367
     29 H14         31.3910    26.3960    17.9080 ha         1 A1A       0.113500
     30 C4          28.4010    22.7530    18.0300 c          1 A1A       0.620700
@<TRIPOS>BOND
     1     1     5 1   
     2     1    14 1   
     3     1    15 1   
     4     2     3 ar  
     5     2     6 ar  
     6     2    30 1   
     7     3     4 ar  
     8     3    16 1   
     9     4     5 ar  
    10     4    17 1   
    11     5    13 ar  
    12     6    13 ar  
    13     6    18 1   
    14     7    10 1   
    15     7    11 1   
    16     7    30 1   
    17     8    10 1   
    18     8    19 1   
    19     8    20 1   
    20     8    21 1   
    21     9    30 2   
    22    10    22 1   
    23    10    23 1   
    24    11    12 1   
    25    11    24 1   
    26    11    25 1   
    27    12    26 1   
    28    12    27 1   
    29    12    28 1   
    30    13    29 1   
@<TRIPOS>SUBSTRUCTURE
     1 A1A         1 TEMP              0 ****  ****    0 ROOT
