@<TRIPOS>MOLECULE
A1A
   80    85     1     0     0
SMALL
abcg2


@<TRIPOS>ATOM
      1 N1          13.7680   -19.1340    15.0370 n3         1 A1A      -0.718600
      2 N3           5.9130   -14.5010    16.1130 nb         1 A1A      -0.305000
      3 C4          14.1500   -18.6890    16.3610 c3         1 A1A       0.212100
      4 C5          12.9690   -18.5280    17.2840 ca         1 A1A      -0.083300
      5 C6          12.9770   -19.0900    18.5540 ca         1 A1A      -0.103000
      6 C7          11.8980   -18.9000    19.4100 ca         1 A1A      -0.108000
      7 C8          10.8090   -18.1510    19.0070 ca         1 A1A      -0.091000
      8 C10          9.6110   -16.8080    17.3150 cc         1 A1A      -0.019300
      9 C13          6.2530   -15.4120    17.0260 ca         1 A1A       0.439900
     10 C15          3.8530   -14.0720    18.6460 ca         1 A1A      -0.110300
     11 C17          3.3150   -11.7160    18.6860 ca         1 A1A      -0.132000
     12 C20          4.1970   -13.9870    19.9860 ca         1 A1A      -0.006000
     13 C21          3.9540   -11.2600    22.9940 c6         1 A1A      -0.305400
     14 C22          4.2790   -10.1370    22.0240 c6         1 A1A      -0.055400
     15 C24          3.0250   -16.4680    18.4880 c3         1 A1A      -0.070700
     16 C26          3.1120   -17.7580    17.6780 c3         1 A1A      -0.088100
     17 C28          8.4380   -15.3460    16.0980 ca         1 A1A       0.153500
     18 S            4.5920   -12.8000    22.3650 sy         1 A1A       1.049500
     19 O1           3.9370   -13.9220    23.0360 o          1 A1A      -0.523500
     20 C23          3.4910   -10.2840    20.7320 c6         1 A1A      -0.049100
     21 C18          3.6520   -11.6100    20.0340 ca         1 A1A       0.012700
     22 C16          3.4120   -12.9180    18.0070 ca         1 A1A      -0.028000
     23 C19          4.0850   -12.7770    20.6630 ca         1 A1A      -0.247500
     24 C14          3.9510   -15.3880    17.9030 c3         1 A1A       0.288800
     25 C25          1.5850   -15.9700    18.5380 c3         1 A1A      -0.088100
     26 N2           5.3170   -15.8670    17.8740 nu         1 A1A      -0.922100
     27 C27          6.8430   -14.0720    15.2600 ca         1 A1A       0.179900
     28 N4           8.1080   -14.4320    15.1810 nb         1 A1A      -0.230000
     29 C12          7.5810   -15.8860    17.0620 ca         1 A1A      -0.258800
     30 C11          8.3380   -16.8130    17.8290 cd         1 A1A      -0.187200
     31 N5           9.6530   -15.9160    16.2630 na         1 A1A      -0.309400
     32 C9          10.7750   -17.5840    17.7280 ca         1 A1A      -0.032800
     33 C29         11.8630   -17.7870    16.8780 ca         1 A1A      -0.087000
     34 C3          13.2620   -20.4950    15.0470 c6         1 A1A       0.142800
     35 C2          12.8090   -20.9150    13.6600 c6         1 A1A       0.098000
     36 C30         14.8640   -19.0050    14.0960 c6         1 A1A       0.142800
     37 C31         14.4220   -19.4030    12.6990 c6         1 A1A       0.098000
     38 N           13.8870   -20.7490    12.7040 n          1 A1A      -0.417800
     39 C1          14.3460   -21.7830    11.9640 c          1 A1A       0.609100
     40 O           13.8550   -22.9030    12.0350 o          1 A1A      -0.605100
     41 C           15.5030   -21.5050    11.0310 c3         1 A1A      -0.177100
     42 H9          14.8860   -19.3640    16.8270 h1         1 A1A       0.040200
     43 H10         14.6470   -17.7190    16.2570 h1         1 A1A       0.040200
     44 H11         13.8270   -19.6790    18.8770 ha         1 A1A       0.113000
     45 H12         11.9110   -19.3370    20.4010 ha         1 A1A       0.117000
     46 H13          9.9860   -17.9930    19.6920 ha         1 A1A       0.119000
     47 H17          2.9740   -10.8320    18.1610 ha         1 A1A       0.116000
     48 H18          4.5450   -14.8700    20.5100 ha         1 A1A       0.126000
     49 H20          2.8770   -11.3800    23.1290 h1         1 A1A       0.106200
     50 H19          4.4190   -11.1270    23.9730 h1         1 A1A       0.106200
     51 H21          4.0260    -9.1880    22.4960 hc         1 A1A       0.065700
     52 H22          5.3530   -10.1080    21.8250 hc         1 A1A       0.065700
     53 H25          3.3510   -16.6800    19.5140 hc         1 A1A       0.049700
     54 H29          2.4360   -18.5090    18.0880 hc         1 A1A       0.038867
     55 H31          2.8220   -17.5840    16.6390 hc         1 A1A       0.038867
     56 H30          4.1140   -18.1860    17.6770 hc         1 A1A       0.038867
     57 H23          2.4270   -10.1400    20.9480 hc         1 A1A       0.063700
     58 H24          3.7670    -9.4880    20.0390 hc         1 A1A       0.063700
     59 H16          3.1420   -12.9600    16.9590 ha         1 A1A       0.126000
     60 H            3.6400   -15.2140    16.8690 h1         1 A1A       0.085700
     61 H26          0.9290   -16.7510    18.9230 hc         1 A1A       0.038867
     62 H27          1.4690   -15.0970    19.1790 hc         1 A1A       0.038867
     63 H28          1.2300   -15.7030    17.5400 hc         1 A1A       0.038867
     64 H15          5.6120   -16.4910    18.6100 hn         1 A1A       0.497000
     65 H32          6.5090   -13.3300    14.5410 h5         1 A1A       0.041100
     66 H14          7.9870   -17.4300    18.6420 ha         1 A1A       0.202000
     67 H1          10.4730   -15.6670    15.7320 hn         1 A1A       0.363000
     68 H33         11.8580   -17.3870    15.8710 ha         1 A1A       0.122000
     69 H8          12.4110   -20.5610    15.7270 h1         1 A1A       0.042450
     70 H7          14.0250   -21.2060    15.4100 h1         1 A1A       0.042450
     71 H6          11.9570   -20.3000    13.3510 h1         1 A1A       0.060950
     72 H5          12.4850   -21.9520    13.6720 h1         1 A1A       0.060950
     73 H35         15.1980   -17.9650    14.0780 h1         1 A1A       0.042450
     74 H34         15.7320   -19.6210    14.3880 h1         1 A1A       0.042450
     75 H37         13.6460   -18.7110    12.3530 h1         1 A1A       0.060950
     76 H36         15.2620   -19.3170    12.0160 h1         1 A1A       0.060950
     77 H4          15.7460   -22.4170    10.4920 hc         1 A1A       0.059700
     78 H2          15.2650   -20.7290    10.3030 hc         1 A1A       0.059700
     79 H3          16.3910   -21.1830    11.5760 hc         1 A1A       0.059700
     80 O2           6.0530   -12.7500    22.3980 o          1 A1A      -0.523500
@<TRIPOS>BOND
     1     1     3 1   
     2     1    34 1   
     3     1    36 1   
     4     2     9 ar  
     5     2    27 ar  
     6     3     4 1   
     7     3    42 1   
     8     3    43 1   
     9     4     5 ar  
    10     4    33 ar  
    11     5     6 ar  
    12     5    44 1   
    13     6     7 ar  
    14     6    45 1   
    15     7    32 ar  
    16     7    46 1   
    17     8    30 2   
    18     8    31 1   
    19     8    32 1   
    20     9    26 1   
    21     9    29 ar  
    22    10    12 ar  
    23    10    22 ar  
    24    10    24 1   
    25    11    21 ar  
    26    11    22 ar  
    27    11    47 1   
    28    12    23 ar  
    29    12    48 1   
    30    13    14 1   
    31    13    18 1   
    32    13    49 1   
    33    13    50 1   
    34    14    20 1   
    35    14    51 1   
    36    14    52 1   
    37    15    16 1   
    38    15    24 1   
    39    15    25 1   
    40    15    53 1   
    41    16    54 1   
    42    16    55 1   
    43    16    56 1   
    44    17    28 ar  
    45    17    29 ar  
    46    17    31 1   
    47    18    19 2   
    48    18    23 1   
    49    18    80 2   
    50    20    21 1   
    51    20    57 1   
    52    20    58 1   
    53    21    23 ar  
    54    22    59 1   
    55    24    26 1   
    56    24    60 1   
    57    25    61 1   
    58    25    62 1   
    59    25    63 1   
    60    26    64 1   
    61    27    28 ar  
    62    27    65 1   
    63    29    30 1   
    64    30    66 1   
    65    31    67 1   
    66    32    33 ar  
    67    33    68 1   
    68    34    35 1   
    69    34    69 1   
    70    34    70 1   
    71    35    38 1   
    72    35    71 1   
    73    35    72 1   
    74    36    37 1   
    75    36    73 1   
    76    36    74 1   
    77    37    38 1   
    78    37    75 1   
    79    37    76 1   
    80    38    39 1   
    81    39    40 2   
    82    39    41 1   
    83    41    77 1   
    84    41    78 1   
    85    41    79 1   
@<TRIPOS>SUBSTRUCTURE
     1 A1A         1 TEMP              0 ****  ****    0 ROOT
