@<TRIPOS>MOLECULE
A1A
   37    38     1     0     0
SMALL
abcg2


@<TRIPOS>ATOM
      1 C02        139.3870   144.0060   125.3830 c5         1 A1A       0.153500
      2 C03        138.3770   145.1690   125.3430 c5         1 A1A      -0.079400
      3 C04        137.1960   144.6990   126.1970 c5         1 A1A       0.163800
      4 C07        137.2180   141.8900   128.7230 c3         1 A1A       0.142300
      5 C09        136.0660   141.5100   129.6510 c3         1 A1A       0.122600
      6 C11        137.0760   140.9120   131.7490 ca         1 A1A       0.150100
      7 C12        137.3890   142.2230   132.0950 ca         1 A1A      -0.190000
      8 C13        138.0180   142.4830   133.3070 ca         1 A1A       0.159000
      9 C15        138.3420   141.4560   134.1790 ca         1 A1A       0.079000
     10 C17        138.0300   140.1490   133.8250 ca         1 A1A      -0.061000
     11 C18        137.4050   139.8760   132.6260 ca         1 A1A      -0.141000
     12 C19        138.6190   142.9010   126.1060 c5         1 A1A       0.170800
     13 N01        140.5670   144.3840   126.1560 n8         1 A1A      -0.980200
     14 N05        137.7420   143.6240   127.0100 n3         1 A1A      -0.703600
     15 O08        137.7420   140.7410   128.0960 oh         1 A1A      -0.658000
     16 O10        136.4530   140.5440   130.6170 os         1 A1A      -0.344100
     17 CL14       138.3930   144.1170   133.7050 cl         1 A1A      -0.171000
     18 CL16       139.1230   141.7720   135.6830 cl         1 A1A      -0.173000
     19 H021       139.6400   143.6780   124.3670 h1         1 A1A       0.020700
     20 H032       138.8310   146.0740   125.7520 hc         1 A1A       0.051200
     21 H031       138.0600   145.3980   124.3260 hc         1 A1A       0.051200
     22 H042       136.7760   145.4880   126.8250 h1         1 A1A       0.032700
     23 H041       136.3830   144.3370   125.5460 h1         1 A1A       0.032700
     24 H061       136.0360   143.5640   128.1510 h1         1 A1A       0.036700
     25 H062       136.0890   142.2920   126.9390 h1         1 A1A       0.036700
     26 H071       137.9970   142.4070   129.3010 h1         1 A1A       0.058700
     27 H092       135.6330   142.3950   130.1260 h1         1 A1A       0.065700
     28 H091       135.2740   141.0320   129.0710 h1         1 A1A       0.065700
     29 H121       137.1590   143.0580   131.4480 ha         1 A1A       0.139000
     30 H171       138.2790   139.3390   134.4970 ha         1 A1A       0.134000
     31 H181       137.1660   138.8540   132.3630 ha         1 A1A       0.135000
     32 H192       138.0470   142.3060   125.3720 h1         1 A1A       0.045200
     33 H191       139.2810   142.2160   126.6350 h1         1 A1A       0.045200
     34 H1         141.2370   143.6250   126.1320 hn         1 A1A       0.389000
     35 H012       141.0280   145.1630   125.6990 hn         1 A1A       0.389000
     36 H081       138.2140   140.2170   128.7500 ho         1 A1A       0.454000
     37 C06        136.7090   142.8540   127.6610 c3         1 A1A       0.177800
@<TRIPOS>BOND
     1     1     2 1   
     2     1    12 1   
     3     1    13 1   
     4     1    19 1   
     5     2     3 1   
     6     2    20 1   
     7     2    21 1   
     8     3    14 1   
     9     3    22 1   
    10     3    23 1   
    11     4     5 1   
    12     4    15 1   
    13     4    26 1   
    14     4    37 1   
    15     5    16 1   
    16     5    27 1   
    17     5    28 1   
    18     6     7 ar  
    19     6    11 ar  
    20     6    16 1   
    21     7     8 ar  
    22     7    29 1   
    23     8     9 ar  
    24     8    17 1   
    25     9    10 ar  
    26     9    18 1   
    27    10    11 ar  
    28    10    30 1   
    29    11    31 1   
    30    12    14 1   
    31    12    32 1   
    32    12    33 1   
    33    13    34 1   
    34    13    35 1   
    35    14    37 1   
    36    15    36 1   
    37    24    37 1   
    38    25    37 1   
@<TRIPOS>SUBSTRUCTURE
     1 A1A         1 TEMP              0 ****  ****    0 ROOT
