@<TRIPOS>MOLECULE
A1A
   29    29     1     0     0
SMALL
No Charge or Current Charge


@<TRIPOS>ATOM
      1 C4          10.1640    11.6040    23.8150 ca         1 A1A       0.145100
      2 C5           9.7860    12.7230    24.5930 ca         1 A1A      -0.186000
      3 C6           8.9050    12.5660    25.6760 ca         1 A1A      -0.078000
      4 C7           8.3990    11.2960    25.9910 ca         1 A1A      -0.142000
      5 C8           8.7730    10.1790    25.2260 ca         1 A1A      -0.080000
      6 N           10.7600    15.1580    21.1580 n          1 A1A      -0.415800
      7 C           12.1220    15.7100    21.3500 c3         1 A1A       0.084800
      8 O            9.3150    13.3840    21.2960 o          1 A1A      -0.572100
      9 C1           9.7510    16.0200    20.5000 c3         1 A1A       0.084800
     10 C2          10.4340    13.8310    21.5310 c          1 A1A       0.570100
     11 C3          11.5260    12.9840    22.2480 c3         1 A1A       0.083600
     12 C9           9.6560    10.3250    24.1380 ca         1 A1A      -0.097300
     13 O1          11.0350    11.7130    22.7440 os         1 A1A      -0.321100
     14 H8          10.1630    13.7180    24.3780 ha         1 A1A       0.110000
     15 H9           8.6160    13.4290    26.2720 ha         1 A1A       0.109000
     16 H10          7.7170    11.1760    26.8300 ha         1 A1A       0.113000
     17 H11          8.3750     9.2000    25.4820 ha         1 A1A       0.111000
     18 H13          9.7650     9.2260    22.2660 hc         1 A1A       0.042700
     19 H14         11.1370     8.9410    23.3510 hc         1 A1A       0.042700
     20 H12          9.5720     8.1880    23.6850 hc         1 A1A       0.042700
     21 H1          12.8660    15.0450    20.8930 h1         1 A1A       0.041867
     22 H           12.2100    16.6990    20.8800 h1         1 A1A       0.041867
     23 H2          12.3340    15.8120    22.4220 h1         1 A1A       0.041867
     24 H5           9.5500    15.6470    19.4880 h1         1 A1A       0.041867
     25 H4           8.8180    16.0090    21.0790 h1         1 A1A       0.041867
     26 H3          10.1070    17.0560    20.4340 h1         1 A1A       0.041867
     27 H7          12.3200    12.8100    21.5120 h1         1 A1A       0.067200
     28 H6          11.9630    13.5760    23.0600 h1         1 A1A       0.067200
     29 C10         10.0530     9.1020    23.3170 c3         1 A1A      -0.034800
@<TRIPOS>BOND
     1     1     2 ar  
     2     1    12 ar  
     3     1    13 1   
     4     2     3 ar  
     5     2    14 1   
     6     3     4 ar  
     7     3    15 1   
     8     4     5 ar  
     9     4    16 1   
    10     5    12 ar  
    11     5    17 1   
    12     6     7 1   
    13     6     9 1   
    14     6    10 1   
    15     7    21 1   
    16     7    22 1   
    17     7    23 1   
    18     8    10 2   
    19     9    24 1   
    20     9    25 1   
    21     9    26 1   
    22    10    11 1   
    23    11    13 1   
    24    11    27 1   
    25    11    28 1   
    26    12    29 1   
    27    18    29 1   
    28    19    29 1   
    29    20    29 1   
@<TRIPOS>SUBSTRUCTURE
     1 A1A         1 TEMP              0 ****  ****    0 ROOT
