@<TRIPOS>MOLECULE
A1A
   29    29     1     0     0
SMALL
No Charge or Current Charge


@<TRIPOS>ATOM
      1 C4           7.7190    11.3910    24.5390 c3         1 A1A      -0.045800
      2 C5           9.5170    12.6540    23.2240 ca         1 A1A      -0.054000
      3 C6           8.2630    14.7520    22.5130 c          1 A1A       0.565100
      4 C7           7.5170    15.9590    23.1420 c3         1 A1A       0.065600
      5 C8          10.7540    12.6710    22.5260 ca         1 A1A      -0.064300
      6 C10         11.4630    11.4670    22.3470 ca         1 A1A      -0.108500
      7 N            8.7570    13.8380    23.4300 ns         1 A1A      -0.161000
      8 C           11.7520     8.9650    22.6610 c3         1 A1A      -0.045800
      9 O            8.3750    14.6200    21.2960 o          1 A1A      -0.588100
     10 C1          10.9740    10.2570    22.8640 ca         1 A1A      -0.068300
     11 C2           9.7630    10.2500    23.5750 ca         1 A1A      -0.108500
     12 C3           9.0350    11.4390    23.7650 ca         1 A1A      -0.064300
     13 C9          11.3790    13.9590    21.9920 c3         1 A1A      -0.045800
     14 O1           7.1220    16.9550    22.1610 oh         1 A1A      -0.655000
     15 H5           7.7670    12.0190    25.4370 hc         1 A1A       0.044367
     16 H4           6.8850    11.7460    23.9220 hc         1 A1A       0.044367
     17 H6           7.4740    10.3730    24.8650 hc         1 A1A       0.044367
     18 H8           6.6400    15.5610    23.6690 h1         1 A1A       0.074200
     19 H9           8.1810    16.4010    23.8980 h1         1 A1A       0.074200
     20 H14         12.4080    11.4740    21.8080 ha         1 A1A       0.112000
     21 H7           8.5340    14.0340    24.3980 hn         1 A1A       0.165000
     22 H1          11.4450     8.4670    21.7340 hc         1 A1A       0.042700
     23 H2          12.8310     9.1530    22.6000 hc         1 A1A       0.042700
     24 H           11.5880     8.2640    23.4880 hc         1 A1A       0.042700
     25 H3           9.3870     9.3140    23.9810 ha         1 A1A       0.112000
     26 H12         11.1590    14.8190    22.6350 hc         1 A1A       0.044367
     27 H11         12.4710    13.8780    21.9380 hc         1 A1A       0.044367
     28 H13         11.0190    14.1830    20.9820 hc         1 A1A       0.044367
     29 H10          7.2360    16.5340    21.2760 ho         1 A1A       0.448000
@<TRIPOS>BOND
     1     1    12 1   
     2     1    15 1   
     3     1    16 1   
     4     1    17 1   
     5     2     5 ar  
     6     2     7 1   
     7     2    12 ar  
     8     3     4 1   
     9     3     7 1   
    10     3     9 2   
    11     4    14 1   
    12     4    18 1   
    13     4    19 1   
    14     5     6 ar  
    15     5    13 1   
    16     6    10 ar  
    17     6    20 1   
    18     7    21 1   
    19     8    10 1   
    20     8    22 1   
    21     8    23 1   
    22     8    24 1   
    23    10    11 ar  
    24    11    12 ar  
    25    11    25 1   
    26    13    26 1   
    27    13    27 1   
    28    13    28 1   
    29    14    29 1   
@<TRIPOS>SUBSTRUCTURE
     1 A1A         1 TEMP              0 ****  ****    0 ROOT
