@<TRIPOS>MOLECULE
A1A
   66    71     1     0     0
SMALL
abcg2


@<TRIPOS>ATOM
      1 N1           8.6590    -8.0080    15.0650 nb         1 A1A      -0.298000
      2 N3           4.8310    -9.1220    14.7260 na         1 A1A      -0.314400
      3 C4           8.3170    -9.0030    14.2460 ca         1 A1A       0.430900
      4 C5           7.7050    -7.4030    15.7710 ca         1 A1A       0.176900
      5 C6           6.0800    -8.6480    14.9480 ca         1 A1A       0.150500
      6 C7           4.8800   -10.1330    13.7890 cc         1 A1A       0.010700
      7 C8           3.6840   -10.8260    13.3440 ca         1 A1A      -0.223800
      8 C10          1.5030   -12.1420    12.4920 ca         1 A1A       0.404900
      9 C13         -0.8500   -13.0710    12.7020 cy         1 A1A       0.223300
     10 C15          6.1870   -10.3220    13.4140 cd         1 A1A      -0.199200
     11 C17         10.7190    -7.9050    12.5890 ca         1 A1A      -0.111300
     12 C20         10.9050    -5.6170    10.9280 ca         1 A1A       0.013700
     13 C21         10.3100    -6.7990    10.4920 ca         1 A1A      -0.247500
     14 C22         10.2130    -7.9260    11.3000 ca         1 A1A      -0.009000
     15 C24         10.1490    -4.3090     8.8650 c6         1 A1A      -0.056400
     16 S            9.5520    -6.9400     8.8950 sy         1 A1A       1.050500
     17 O1           9.9710    -8.2020     8.2890 o          1 A1A      -0.523000
     18 C23         10.2420    -5.5590     8.0050 c6         1 A1A      -0.305400
     19 C25         11.0780    -4.3930    10.0670 c6         1 A1A      -0.049100
     20 C19         11.4060    -5.6160    12.2290 ca         1 A1A      -0.131000
     21 C18         11.3120    -6.7310    13.0430 ca         1 A1A      -0.030000
     22 C3          10.6430    -9.1400    13.4610 c3         1 A1A       0.286800
     23 C1          11.5730   -10.2600    12.9680 c3         1 A1A      -0.068700
     24 C2          13.0000    -9.7460    12.8060 c3         1 A1A      -0.087600
     25 C           11.5470   -11.4470    13.9260 c3         1 A1A      -0.087600
     26 N            9.2830    -9.6320    13.5500 nu         1 A1A      -0.918100
     27 C16          6.9610    -9.3770    14.1440 ca         1 A1A      -0.249800
     28 N2           6.4120    -7.6540    15.7760 nb         1 A1A      -0.227000
     29 C14          2.5300   -10.9530    14.1170 ca         1 A1A       0.168400
     30 N6           1.4500   -11.5910    13.7120 nb         1 A1A      -0.241000
     31 N4           2.5520   -12.0840    11.6570 nb         1 A1A      -0.241000
     32 C9           3.6100   -11.4320    12.0880 ca         1 A1A       0.168400
     33 N5           0.4250   -12.8000    12.0730 nn         1 A1A      -0.783300
     34 C12         -1.2020   -13.9450    11.4680 cy         1 A1A       0.125300
     35 O           -2.2840   -13.5440    10.6890 oh         1 A1A      -0.637000
     36 C11          0.1520   -13.5330    10.8550 cy         1 A1A       0.223300
     37 H1           3.9950    -8.7330    15.1330 hn         1 A1A       0.361000
     38 H10          8.0420    -6.6020    16.4210 h5         1 A1A       0.042100
     39 H17         -1.4830   -12.1880    12.8230 h1         1 A1A       0.069200
     40 H16         -0.7790   -13.5970    13.6560 h1         1 A1A       0.069200
     41 H19          6.5400   -11.0660    12.7180 ha         1 A1A       0.202000
     42 H22          9.7440    -8.8260    10.9200 ha         1 A1A       0.126000
     43 H26         10.4260    -3.4500     8.2540 hc         1 A1A       0.066200
     44 H25          9.1170    -4.1450     9.1800 hc         1 A1A       0.066200
     45 H23         11.2760    -5.8080     7.7580 h1         1 A1A       0.105700
     46 H24          9.6670    -5.4850     7.0800 h1         1 A1A       0.105700
     47 H27         12.1140    -4.3720     9.7140 hc         1 A1A       0.063700
     48 H28         10.9550    -3.5050    10.6890 hc         1 A1A       0.063700
     49 H21         11.8740    -4.7160    12.6090 ha         1 A1A       0.116000
     50 H20         11.7080    -6.6920    14.0510 ha         1 A1A       0.124000
     51 H           10.9660    -8.8620    14.4680 h1         1 A1A       0.086700
     52 H5          11.2170   -10.5940    11.9850 hc         1 A1A       0.049700
     53 H7          13.0840    -8.9860    12.0310 hc         1 A1A       0.038533
     54 H6          13.3670    -9.3130    13.7400 hc         1 A1A       0.038533
     55 H8          13.6680   -10.5640    12.5350 hc         1 A1A       0.038533
     56 H4          10.5530   -11.8840    14.0240 hc         1 A1A       0.038533
     57 H3          12.2180   -12.2330    13.5780 hc         1 A1A       0.038533
     58 H2          11.8790   -11.1440    14.9220 hc         1 A1A       0.038533
     59 H9           8.9910   -10.3090    12.8620 hn         1 A1A       0.493000
     60 H18          2.4810   -10.5290    15.1160 h4         1 A1A       0.022600
     61 H11          4.4500   -11.3700    11.4030 h4         1 A1A       0.022600
     62 H14         -1.2450   -15.0090    11.7190 h1         1 A1A       0.050700
     63 H15         -3.0960   -13.8440    11.1120 ho         1 A1A       0.452000
     64 H13          0.0630   -12.9030     9.9670 h1         1 A1A       0.069200
     65 H12          0.8510   -14.3460    10.6480 h1         1 A1A       0.069200
     66 O2           8.1160    -6.7130     9.0590 o          1 A1A      -0.523000
@<TRIPOS>BOND
     1     1     3 ar  
     2     1     4 ar  
     3     2     5 1   
     4     2     6 1   
     5     2    37 1   
     6     3    26 1   
     7     3    27 ar  
     8     4    28 ar  
     9     4    38 1   
    10     5    27 ar  
    11     5    28 ar  
    12     6     7 1   
    13     6    10 2   
    14     7    29 ar  
    15     7    32 ar  
    16     8    30 ar  
    17     8    31 ar  
    18     8    33 1   
    19     9    33 1   
    20     9    34 1   
    21     9    39 1   
    22     9    40 1   
    23    10    27 1   
    24    10    41 1   
    25    11    14 ar  
    26    11    21 ar  
    27    11    22 1   
    28    12    13 ar  
    29    12    19 1   
    30    12    20 ar  
    31    13    14 ar  
    32    13    16 1   
    33    14    42 1   
    34    15    18 1   
    35    15    19 1   
    36    15    43 1   
    37    15    44 1   
    38    16    17 2   
    39    16    18 1   
    40    16    66 2   
    41    18    45 1   
    42    18    46 1   
    43    19    47 1   
    44    19    48 1   
    45    20    21 ar  
    46    20    49 1   
    47    21    50 1   
    48    22    23 1   
    49    22    26 1   
    50    22    51 1   
    51    23    24 1   
    52    23    25 1   
    53    23    52 1   
    54    24    53 1   
    55    24    54 1   
    56    24    55 1   
    57    25    56 1   
    58    25    57 1   
    59    25    58 1   
    60    26    59 1   
    61    29    30 ar  
    62    29    60 1   
    63    31    32 ar  
    64    32    61 1   
    65    33    36 1   
    66    34    35 1   
    67    34    36 1   
    68    34    62 1   
    69    35    63 1   
    70    36    64 1   
    71    36    65 1   
@<TRIPOS>SUBSTRUCTURE
     1 A1A         1 TEMP              0 ****  ****    0 ROOT
