@<TRIPOS>MOLECULE
A1A
   54    57     1     0     0
SMALL
No Charge or Current Charge


@<TRIPOS>ATOM
      1 N1           8.6510    -8.0390    15.2800 nb         1 A1A      -0.312000
      2 N3           4.8430    -9.5770    14.9850 na         1 A1A      -0.266400
      3 C4           8.3380    -9.1200    14.5410 ca         1 A1A       0.454900
      4 C5           7.6300    -7.4490    15.9480 ca         1 A1A       0.200900
      5 C6           6.0430    -8.9190    15.2100 ca         1 A1A       0.177500
      6 C7           5.0300   -10.6910    14.1250 cc         1 A1A      -0.281200
      7 C8           3.2910   -12.7010    15.0260 c3         1 A1A      -0.341100
      8 C10          7.0180    -9.5760    14.5010 ca         1 A1A      -0.286800
      9 C13         11.1180    -5.6630    12.3800 ca         1 A1A      -0.131000
     10 C15         10.1090    -6.9610    10.5890 ca         1 A1A      -0.245500
     11 C17          9.8730    -5.6020     8.0990 c6         1 A1A      -0.305400
     12 S1           9.4100    -7.1310     8.9380 sy         1 A1A       1.047500
     13 O2          10.0870    -8.2480     8.2650 o          1 A1A      -0.520500
     14 C18          9.6570    -4.3890     9.0270 c6         1 A1A      -0.056400
     15 C19         10.6230    -4.4320    10.2330 c6         1 A1A      -0.050100
     16 C14         10.5950    -5.7210    11.0740 ca         1 A1A       0.015700
     17 C12         11.1540    -6.8050    13.1960 ca         1 A1A      -0.030000
     18 C16         10.1470    -8.1050    11.4120 ca         1 A1A      -0.006000
     19 C11         10.6710    -8.0360    12.7180 ca         1 A1A      -0.115300
     20 C3          10.7190    -9.2770    13.6140 c3         1 A1A       0.284800
     21 C1          11.6100   -10.4180    13.0310 c3         1 A1A      -0.070700
     22 C2          11.7290   -11.6240    13.9990 c3         1 A1A      -0.088600
     23 C           13.0230    -9.9140    12.6400 c3         1 A1A      -0.088600
     24 N            9.3480    -9.7590    13.8380 nu         1 A1A      -0.912100
     25 N2           6.3310    -7.8350    15.9520 nb         1 A1A      -0.235000
     26 C9           6.3810   -10.6790    13.8190 cd         1 A1A      -0.060200
     27 S            3.7360   -11.8120    13.5350 sy         1 A1A       1.092100
     28 O            2.5680   -11.0010    13.1670 o          1 A1A      -0.519000
     29 O1           4.3400   -12.7700    12.5990 o          1 A1A      -0.519000
     30 H1           3.9560    -9.2760    15.3780 hn         1 A1A       0.382000
     31 H10          7.8800    -6.5740    16.5450 h5         1 A1A       0.046100
     32 H13          2.5040   -13.4190    14.7720 h1         1 A1A       0.104367
     33 H12          4.1850   -13.2180    15.3920 h1         1 A1A       0.104367
     34 H11          2.9330   -11.9760    15.7630 h1         1 A1A       0.104367
     35 H16         11.5050    -4.7230    12.7670 ha         1 A1A       0.117000
     36 H18         10.9290    -5.7120     7.8210 h1         1 A1A       0.107200
     37 H19          9.2540    -5.5500     7.1960 h1         1 A1A       0.107200
     38 H21          9.8230    -3.4590     8.4640 hc         1 A1A       0.066700
     39 H20          8.6160    -4.3530     9.3790 hc         1 A1A       0.066700
     40 H22         11.6500    -4.2750     9.8730 hc         1 A1A       0.064700
     41 H23         10.4060    -3.5720    10.8820 hc         1 A1A       0.064700
     42 H15         11.5610    -6.7290    14.2020 ha         1 A1A       0.126000
     43 H17          9.7630    -9.0520    11.0380 ha         1 A1A       0.126000
     44 H           11.1600    -8.9890    14.5810 h1         1 A1A       0.089700
     45 H5          11.1370   -10.7850    12.1110 hc         1 A1A       0.051700
     46 H7          10.7490   -12.0660    14.2120 hc         1 A1A       0.039533
     47 H8          12.3570   -12.4110    13.5630 hc         1 A1A       0.039533
     48 H6          12.1800   -11.3170    14.9510 hc         1 A1A       0.039533
     49 H3          12.9710    -9.1460    11.8590 hc         1 A1A       0.039533
     50 H2          13.5390    -9.4860    13.5090 hc         1 A1A       0.039533
     51 H4          13.6350   -10.7370    12.2510 hc         1 A1A       0.039533
     52 H9           9.0610   -10.5900    13.3310 hn         1 A1A       0.500000
     53 H14          6.8700   -11.3940    13.1580 ha         1 A1A       0.221000
     54 O3           7.9480    -7.1340     9.0760 o          1 A1A      -0.520500
@<TRIPOS>BOND
     1     1     3 ar  
     2     1     4 ar  
     3     2     5 1   
     4     2     6 1   
     5     2    30 1   
     6     3     8 ar  
     7     3    24 1   
     8     4    25 ar  
     9     4    31 1   
    10     5     8 ar  
    11     5    25 ar  
    12     6    26 2   
    13     6    27 1   
    14     7    27 1   
    15     7    32 1   
    16     7    33 1   
    17     7    34 1   
    18     8    26 1   
    19     9    16 ar  
    20     9    17 ar  
    21     9    35 1   
    22    10    12 1   
    23    10    16 ar  
    24    10    18 ar  
    25    11    12 1   
    26    11    14 1   
    27    11    36 1   
    28    11    37 1   
    29    12    13 2   
    30    12    54 2   
    31    14    15 1   
    32    14    38 1   
    33    14    39 1   
    34    15    16 1   
    35    15    40 1   
    36    15    41 1   
    37    17    19 ar  
    38    17    42 1   
    39    18    19 ar  
    40    18    43 1   
    41    19    20 1   
    42    20    21 1   
    43    20    24 1   
    44    20    44 1   
    45    21    22 1   
    46    21    23 1   
    47    21    45 1   
    48    22    46 1   
    49    22    47 1   
    50    22    48 1   
    51    23    49 1   
    52    23    50 1   
    53    23    51 1   
    54    24    52 1   
    55    26    53 1   
    56    27    28 2   
    57    27    29 2   
@<TRIPOS>SUBSTRUCTURE
     1 A1A         1 TEMP              0 ****  ****    0 ROOT
