@<TRIPOS>MOLECULE
A1A
   70    74     1     0     0
SMALL
abcg2


@<TRIPOS>ATOM
      1 N1           5.1740   -14.5430    15.8600 nb         1 A1A      -0.303000
      2 N3           8.9640   -15.8060    15.6250 na         1 A1A      -0.307400
      3 C4           5.6440   -15.4250    16.7430 ca         1 A1A       0.441900
      4 C5           5.9830   -14.1130    14.8920 ca         1 A1A       0.185900
      5 C6           7.7100   -15.3040    15.5720 ca         1 A1A       0.159500
      6 C7           9.0720   -16.6720    16.6940 cc         1 A1A      -0.044300
      7 C8          10.3170   -17.3420    17.0380 ca         1 A1A       0.037200
      8 C10         11.4750   -19.0410    18.3170 ca         1 A1A      -0.002500
      9 C13         16.5990   -19.8320    15.6720 c3         1 A1A       0.154600
     10 C15         11.5470   -16.9280    16.5150 ca         1 A1A      -0.129000
     11 C17          6.9850   -15.8550    16.6340 ca         1 A1A      -0.265800
     12 C20          3.1790   -11.7420    19.0520 ca         1 A1A      -0.131000
     13 C21          3.7180   -11.7430    20.3380 ca         1 A1A       0.014700
     14 C22          4.1710   -12.9700    20.8220 ca         1 A1A      -0.245500
     15 C24          4.5020   -11.6060    23.2320 c6         1 A1A      -0.305400
     16 C26          3.7480   -10.4630    21.1320 c6         1 A1A      -0.050100
     17 S1           4.9110   -13.1420    22.4280 sy         1 A1A       1.047500
     18 O3           4.2660   -14.2580    23.1180 o          1 A1A      -0.521500
     19 C25          4.7470   -10.4480    22.2790 c6         1 A1A      -0.055400
     20 C19          3.1060   -12.8990    18.2940 ca         1 A1A      -0.030000
     21 C23          4.1140   -14.1340    20.0650 ca         1 A1A      -0.008000
     22 C18          3.5740   -14.1120    18.7890 ca         1 A1A      -0.117300
     23 C3           3.5000   -15.3790    17.9600 c3         1 A1A       0.285800
     24 C1           2.6330   -16.4670    18.6160 c3         1 A1A      -0.068700
     25 C2           1.2430   -15.9280    18.9340 c3         1 A1A      -0.088100
     26 C            2.5280   -17.6970    17.7190 c3         1 A1A      -0.088100
     27 N            4.8290   -15.8940    17.7000 nu         1 A1A      -0.915100
     28 N2           7.2420   -14.4340    14.6740 nb         1 A1A      -0.231000
     29 C16          7.8590   -16.7220    17.3380 cd         1 A1A      -0.163200
     30 C14         12.7230   -17.5560    16.8810 ca         1 A1A      -0.002500
     31 C11         12.6820   -18.6080    17.7870 ca         1 A1A      -0.280500
     32 C9          10.3030   -18.4140    17.9360 ca         1 A1A      -0.129000
     33 S           14.1960   -19.3690    18.2870 sy         1 A1A       1.146600
     34 O           15.2380   -18.3560    18.3870 o          1 A1A      -0.541500
     35 O1          13.9200   -20.1800    19.4650 o          1 A1A      -0.541500
     36 N4          14.5630   -20.2760    16.9590 n7         1 A1A      -0.897300
     37 C12         15.9560   -20.6820    16.7520 c3         1 A1A       0.213800
     38 O2          17.9200   -20.2900    15.4990 oh         1 A1A      -0.664000
     39 H1           9.6780   -15.6080    14.9420 hn         1 A1A       0.364000
     40 H10          5.5420   -13.4030    14.2000 h5         1 A1A       0.044100
     41 H12         11.4380   -19.8620    19.0200 ha         1 A1A       0.137500
     42 H16         16.0070   -19.9230    14.7530 h1         1 A1A       0.033700
     43 H17         16.5660   -18.7780    15.9740 h1         1 A1A       0.033700
     44 H20         11.6100   -16.0920    15.8310 ha         1 A1A       0.118000
     45 H23          2.8150   -10.8090    18.6390 ha         1 A1A       0.117000
     46 H26          3.4570   -11.6620    23.5430 h1         1 A1A       0.107700
     47 H25          5.1320   -11.5670    24.1230 h1         1 A1A       0.107700
     48 H29          2.7450   -10.2820    21.5330 hc         1 A1A       0.064700
     49 H30          3.9550    -9.6350    20.4530 hc         1 A1A       0.064700
     50 H27          4.6490    -9.5160    22.8360 hc         1 A1A       0.066700
     51 H28          5.7720   -10.4800    21.9020 hc         1 A1A       0.066700
     52 H22          2.6820   -12.8580    17.2980 ha         1 A1A       0.127000
     53 H24          4.4850   -15.0660    20.4770 ha         1 A1A       0.125000
     54 H            3.0500   -15.1290    16.9970 h1         1 A1A       0.090700
     55 H5           3.1110   -16.7630    19.5580 hc         1 A1A       0.049700
     56 H6           1.2700   -15.0920    19.6340 hc         1 A1A       0.039367
     57 H7           0.7380   -15.5890    18.0260 hc         1 A1A       0.039367
     58 H8           0.6280   -16.7110    19.3800 hc         1 A1A       0.039367
     59 H2           3.4980   -18.1450    17.5090 hc         1 A1A       0.039367
     60 H4           1.9090   -18.4580    18.1940 hc         1 A1A       0.039367
     61 H3           2.0620   -17.4390    16.7650 hc         1 A1A       0.039367
     62 H9           5.2340   -16.5010    18.3970 hn         1 A1A       0.495000
     63 H21          7.6380   -17.2890    18.2290 ha         1 A1A       0.205000
     64 H19         13.6620   -17.2140    16.4660 ha         1 A1A       0.137500
     65 H11          9.3670   -18.7710    18.3430 ha         1 A1A       0.118000
     66 H13         13.8850   -21.0150    16.8100 hn         1 A1A       0.479000
     67 H15         16.5410   -20.6320    17.6740 h1         1 A1A       0.061700
     68 H14         15.9460   -21.7280    16.4470 h1         1 A1A       0.061700
     69 H18         18.3310   -19.7710    14.8030 ho         1 A1A       0.450000
     70 O4           6.3620   -13.2030    22.2490 o          1 A1A      -0.521500
@<TRIPOS>BOND
     1     1     3 ar  
     2     1     4 ar  
     3     2     5 1   
     4     2     6 1   
     5     2    39 1   
     6     3    11 ar  
     7     3    27 1   
     8     4    28 ar  
     9     4    40 1   
    10     5    11 ar  
    11     5    28 ar  
    12     6     7 1   
    13     6    29 2   
    14     7    10 ar  
    15     7    32 ar  
    16     8    31 ar  
    17     8    32 ar  
    18     8    41 1   
    19     9    37 1   
    20     9    38 1   
    21     9    42 1   
    22     9    43 1   
    23    10    30 ar  
    24    10    44 1   
    25    11    29 1   
    26    12    13 ar  
    27    12    20 ar  
    28    12    45 1   
    29    13    14 ar  
    30    13    16 1   
    31    14    17 1   
    32    14    21 ar  
    33    15    17 1   
    34    15    19 1   
    35    15    46 1   
    36    15    47 1   
    37    16    19 1   
    38    16    48 1   
    39    16    49 1   
    40    17    18 2   
    41    17    70 2   
    42    19    50 1   
    43    19    51 1   
    44    20    22 ar  
    45    20    52 1   
    46    21    22 ar  
    47    21    53 1   
    48    22    23 1   
    49    23    24 1   
    50    23    27 1   
    51    23    54 1   
    52    24    25 1   
    53    24    26 1   
    54    24    55 1   
    55    25    56 1   
    56    25    57 1   
    57    25    58 1   
    58    26    59 1   
    59    26    60 1   
    60    26    61 1   
    61    27    62 1   
    62    29    63 1   
    63    30    31 ar  
    64    30    64 1   
    65    31    33 1   
    66    32    65 1   
    67    33    34 2   
    68    33    35 2   
    69    33    36 1   
    70    36    37 1   
    71    36    66 1   
    72    37    67 1   
    73    37    68 1   
    74    38    69 1   
@<TRIPOS>SUBSTRUCTURE
     1 A1A         1 TEMP              0 ****  ****    0 ROOT
