@<TRIPOS>MOLECULE
A1A
   28    29     1     0     0
SMALL
abcg2


@<TRIPOS>ATOM
      1 N1           7.6010    13.3480    24.6070 nv         1 A1A      -1.027000
      2 N3           6.0000     9.7760    26.8020 ns         1 A1A      -0.478900
      3 C4           6.3330    10.9630    26.2630 c          1 A1A       0.544600
      4 C5           4.9360     9.5860    27.7430 cy         1 A1A       0.093700
      5 C6           5.0460     8.3990    28.7120 cy         1 A1A      -0.107400
      6 C7           3.5180     8.2370    28.5970 cy         1 A1A      -0.092400
      7 C8           3.5790     9.0220    27.2720 cy         1 A1A      -0.107400
      8 N            8.9110    10.1050    24.0320 na         1 A1A       0.164800
      9 C            9.8020     9.1070    23.4870 c3         1 A1A       0.069900
     10 O            5.7960    12.0250    26.5720 o          1 A1A      -0.622100
     11 C1           8.9510    11.4370    23.7840 cc         1 A1A      -0.267000
     12 C2           7.9780    12.0190    24.5730 cd         1 A1A       0.228000
     13 C3           7.4140    10.9240    25.2670 cd         1 A1A       0.142500
     14 N2           8.0050     9.7820    24.9170 nc         1 A1A      -0.510800
     15 H4           7.1220    13.6040    25.4550 hn         1 A1A       0.451000
     16 H5           8.3530    13.9910    24.4070 hn         1 A1A       0.451000
     17 H6           6.4610     8.9540    26.4410 hn         1 A1A       0.326500
     18 H7           4.7860    10.5140    28.2950 h1         1 A1A       0.084700
     19 H9           5.5670     7.5590    28.2470 hc         1 A1A       0.054450
     20 H8           5.4830     8.5820    29.6940 hc         1 A1A       0.054450
     21 H11          3.1190     7.2240    28.5660 hc         1 A1A       0.051700
     22 H10          2.9940     8.7950    29.3740 hc         1 A1A       0.051700
     23 H13          3.7130     8.3510    26.4210 hc         1 A1A       0.054450
     24 H12          2.7840     9.7310    27.0450 hc         1 A1A       0.054450
     25 H1           9.3150     8.1380    23.5350 h1         1 A1A       0.059367
     26 H           10.0240     9.3440    22.4500 h1         1 A1A       0.059367
     27 H2          10.7340     9.0690    24.0500 h1         1 A1A       0.059367
     28 H3           9.6430    11.8660    23.0780 h4         1 A1A       0.159000
@<TRIPOS>BOND
     1     1    12 1   
     2     1    15 1   
     3     1    16 1   
     4     2     3 1   
     5     2     4 1   
     6     2    17 1   
     7     3    10 2   
     8     3    13 1   
     9     4     5 1   
    10     4     7 1   
    11     4    18 1   
    12     5     6 1   
    13     5    19 1   
    14     5    20 1   
    15     6     7 1   
    16     6    21 1   
    17     6    22 1   
    18     7    23 1   
    19     7    24 1   
    20     8     9 1   
    21     8    11 1   
    22     8    14 1   
    23     9    25 1   
    24     9    26 1   
    25     9    27 1   
    26    11    12 2   
    27    11    28 1   
    28    12    13 1   
    29    13    14 2   
@<TRIPOS>SUBSTRUCTURE
     1 A1A         1 TEMP              0 ****  ****    0 ROOT
