@<TRIPOS>MOLECULE
A1A
   58    62     1     0     0
SMALL
No Charge or Current Charge


@<TRIPOS>ATOM
      1 N1           8.7200    -7.8240    15.1880 nb         1 A1A      -0.304000
      2 N3           4.7840    -9.0100    14.9130 na         1 A1A      -0.314400
      3 C4           8.3080    -8.8760    14.4540 ca         1 A1A       0.438900
      4 C5           7.7590    -7.1410    15.8570 ca         1 A1A       0.179900
      5 C6           6.0400    -8.4620    15.1290 ca         1 A1A       0.151500
      6 C7           4.8690   -10.1210    14.0570 cc         1 A1A       0.003700
      7 C8           3.7940   -10.9850    13.5700 ca         1 A1A      -0.214800
      8 C10          1.7930   -12.5480    12.6990 ca         1 A1A       0.383900
      9 C13          6.9500    -9.2090    14.4190 ca         1 A1A      -0.254800
     10 C15         11.2830    -6.8170    13.0440 ca         1 A1A      -0.027000
     11 C17         10.7590    -5.6950    10.9330 ca         1 A1A       0.013700
     12 C20          9.9640    -5.5220     7.9800 c6         1 A1A      -0.306400
     13 C21          9.8800    -4.2920     8.9070 c6         1 A1A      -0.055400
     14 C22         10.8730    -4.4150    10.0860 c6         1 A1A      -0.050100
     15 S            9.3960    -7.0040     8.8390 sy         1 A1A       1.050500
     16 O            9.9550    -8.1760     8.1530 o          1 A1A      -0.523500
     17 C16         11.3220    -5.6790    12.2230 ca         1 A1A      -0.132000
     18 C18         10.1550    -6.8900    10.4690 ca         1 A1A      -0.247500
     19 C19         10.1180    -8.0310    11.2960 ca         1 A1A      -0.005000
     20 C14         10.6830    -8.0040    12.5860 ca         1 A1A      -0.107300
     21 C3          10.6490    -9.2420    13.4870 c3         1 A1A       0.290800
     22 C1          11.4280   -10.4550    12.8870 c3         1 A1A      -0.071700
     23 C2          11.4700   -11.6650    13.8560 c3         1 A1A      -0.088600
     24 C           12.8680   -10.0710    12.4600 c3         1 A1A      -0.088600
     25 N            9.2500    -9.6080    13.7480 nu         1 A1A      -0.924100
     26 N2           6.4290    -7.4060    15.8660 nb         1 A1A      -0.230000
     27 C12          6.2090   -10.2530    13.7450 cd         1 A1A      -0.194200
     28 C11          4.0260   -12.0770    12.7040 ca         1 A1A       0.167400
     29 N6           3.0220   -12.8620    12.2660 nb         1 A1A      -0.243500
     30 N5           0.7820   -13.3370    12.2570 nv         1 A1A      -1.061900
     31 N4           1.4480   -11.5430    13.5150 nb         1 A1A      -0.243500
     32 C9           2.4550   -10.7600    13.9510 ca         1 A1A       0.167400
     33 H1           3.9300    -8.6510    15.3210 hn         1 A1A       0.361000
     34 H10          8.0890    -6.2900    16.4490 h5         1 A1A       0.042100
     35 H16         11.7240    -6.7740    14.0380 ha         1 A1A       0.126000
     36 H19         10.9980    -5.7230     7.6710 h1         1 A1A       0.106200
     37 H20          9.3250    -5.4190     7.0940 h1         1 A1A       0.106200
     38 H22         10.1080    -3.3820     8.3350 hc         1 A1A       0.065700
     39 H21          8.8560    -4.1670     9.2890 hc         1 A1A       0.065700
     40 H23         11.8980    -4.3490     9.6950 hc         1 A1A       0.063700
     41 H24         10.7500    -3.5380    10.7360 hc         1 A1A       0.063700
     42 H17         11.7990    -4.7750    12.5950 ha         1 A1A       0.116000
     43 H18          9.6440    -8.9430    10.9380 ha         1 A1A       0.126000
     44 H           11.1360    -8.9890    14.4410 h1         1 A1A       0.082700
     45 H5          10.9040   -10.7820    11.9800 hc         1 A1A       0.050700
     46 H7          10.4620   -12.0240    14.0930 hc         1 A1A       0.038867
     47 H8          12.0200   -12.5020    13.4080 hc         1 A1A       0.038867
     48 H6          11.9670   -11.3950    14.7960 hc         1 A1A       0.038867
     49 H3          12.8610    -9.3030    11.6770 hc         1 A1A       0.038867
     50 H2          13.4390    -9.6860    13.3140 hc         1 A1A       0.038867
     51 H4          13.4000   -10.9420    12.0590 hc         1 A1A       0.038867
     52 H9           8.8770   -10.4060    13.2430 hn         1 A1A       0.499000
     53 H15          6.6330   -11.0140    13.0980 ha         1 A1A       0.202000
     54 H14          5.0220   -12.3360    12.3510 h4         1 A1A       0.023600
     55 H13         -0.1750   -13.0090    12.3740 hn         1 A1A       0.503000
     56 H12          0.9560   -13.9620    11.4730 hn         1 A1A       0.503000
     57 H11          2.1780    -9.9430    14.6150 h4         1 A1A       0.023600
     58 O1           7.9430    -6.8810     9.0190 o          1 A1A      -0.523500
@<TRIPOS>BOND
     1     1     3 ar  
     2     1     4 ar  
     3     2     5 1   
     4     2     6 1   
     5     2    33 1   
     6     3     9 ar  
     7     3    25 1   
     8     4    26 ar  
     9     4    34 1   
    10     5     9 ar  
    11     5    26 ar  
    12     6     7 1   
    13     6    27 2   
    14     7    28 ar  
    15     7    32 ar  
    16     8    29 ar  
    17     8    30 1   
    18     8    31 ar  
    19     9    27 1   
    20    10    17 ar  
    21    10    20 ar  
    22    10    35 1   
    23    11    14 1   
    24    11    17 ar  
    25    11    18 ar  
    26    12    13 1   
    27    12    15 1   
    28    12    36 1   
    29    12    37 1   
    30    13    14 1   
    31    13    38 1   
    32    13    39 1   
    33    14    40 1   
    34    14    41 1   
    35    15    16 2   
    36    15    18 1   
    37    15    58 2   
    38    17    42 1   
    39    18    19 ar  
    40    19    20 ar  
    41    19    43 1   
    42    20    21 1   
    43    21    22 1   
    44    21    25 1   
    45    21    44 1   
    46    22    23 1   
    47    22    24 1   
    48    22    45 1   
    49    23    46 1   
    50    23    47 1   
    51    23    48 1   
    52    24    49 1   
    53    24    50 1   
    54    24    51 1   
    55    25    52 1   
    56    27    53 1   
    57    28    29 ar  
    58    28    54 1   
    59    30    55 1   
    60    30    56 1   
    61    31    32 ar  
    62    32    57 1   
@<TRIPOS>SUBSTRUCTURE
     1 A1A         1 TEMP              0 ****  ****    0 ROOT
