@<TRIPOS>MOLECULE
A1A
   43    44     1     0     0
SMALL
No Charge or Current Charge


@<TRIPOS>ATOM
      1 C11        138.3380   141.3750   131.7030 ca         1 A1A       0.145100
      2 C13        136.7100   140.7660   133.4110 ca         1 A1A      -0.077000
      3 C14        137.7320   140.1940   134.1870 ca         1 A1A      -0.100000
      4 C15        139.0700   140.2110   133.7350 ca         1 A1A      -0.157300
      5 C16        139.3560   140.8010   132.4830 ca         1 A1A      -0.102000
      6 C21        139.1850   144.5580   125.6980 c6         1 A1A       0.170300
      7 C02        138.4540   145.1490   123.3340 c6         1 A1A       0.153500
      8 C03        137.1040   144.4610   123.6270 c6         1 A1A      -0.092400
      9 C04        136.7870   144.5170   125.1400 c6         1 A1A       0.170300
     10 C06        137.4980   143.8460   127.4050 c3         1 A1A       0.176800
     11 C07        138.4580   143.0560   128.3520 c3         1 A1A       0.173300
     12 C09        137.7190   142.5410   129.6130 c3         1 A1A       0.124600
     13 C12        137.0070   141.3580   132.1720 ca         1 A1A      -0.170000
     14 C17        140.1880   139.5780   134.5730 c3         1 A1A       0.355300
     15 C22        139.5640   144.5130   124.1980 c6         1 A1A      -0.092400
     16 F18        141.3790   140.1960   134.3920 f          1 A1A      -0.112667
     17 F19        140.3660   138.2770   134.2510 f          1 A1A      -0.112667
     18 F20        139.9280   139.6250   135.9000 f          1 A1A      -0.112667
     19 N01        138.7870   145.0570   121.8980 n8         1 A1A      -0.988200
     20 N05        137.8700   143.9000   125.9580 n3         1 A1A      -0.722600
     21 O08        139.5760   143.8700   128.7700 oh         1 A1A      -0.660000
     22 O10        138.6910   141.9360   130.4920 os         1 A1A      -0.356100
     23 H131       135.6830   140.7480   133.7720 ha         1 A1A       0.120000
     24 H141       137.4780   139.7350   135.1400 ha         1 A1A       0.134000
     25 H161       140.3750   140.8160   132.1030 ha         1 A1A       0.141000
     26 H212       139.1610   145.6050   126.0340 h1         1 A1A       0.035950
     27 H021       138.3720   146.2170   123.5910 h1         1 A1A       0.056700
     28 H032       136.2980   144.9520   123.0660 hc         1 A1A       0.049700
     29 H031       137.1280   143.4130   123.2990 hc         1 A1A       0.049700
     30 H042       136.6380   145.5660   125.4360 h1         1 A1A       0.035950
     31 H041       135.8340   143.9950   125.3150 h1         1 A1A       0.035950
     32 H062       137.3770   144.8630   127.8010 h1         1 A1A       0.039200
     33 H061       136.5110   143.3680   127.4820 h1         1 A1A       0.039200
     34 H071       138.8190   142.1740   127.8060 h1         1 A1A       0.059700
     35 H091       137.2170   143.3810   130.1100 h1         1 A1A       0.045200
     36 H092       136.9590   141.8090   129.3120 h1         1 A1A       0.045200
     37 H121       136.1970   141.7920   131.5940 ha         1 A1A       0.122000
     38 H222       139.7300   143.4690   123.8980 hc         1 A1A       0.049700
     39 H221       140.5150   145.0420   124.0460 hc         1 A1A       0.049700
     40 H012       139.7180   145.4650   121.7490 hn         1 A1A       0.391500
     41 H1         138.9180   144.0680   121.6560 hn         1 A1A       0.391500
     42 H081       139.9380   143.4220   129.5670 ho         1 A1A       0.459000
     43 H211       139.9880   144.0560   126.2560 h1         1 A1A       0.035950
@<TRIPOS>BOND
     1     1     5 ar  
     2     1    13 ar  
     3     1    22 1   
     4     2     3 ar  
     5     2    13 ar  
     6     2    23 1   
     7     3     4 ar  
     8     3    24 1   
     9     4     5 ar  
    10     4    14 1   
    11     5    25 1   
    12     6    15 1   
    13     6    20 1   
    14     6    26 1   
    15     6    43 1   
    16     7     8 1   
    17     7    15 1   
    18     7    19 1   
    19     7    27 1   
    20     8     9 1   
    21     8    28 1   
    22     8    29 1   
    23     9    20 1   
    24     9    30 1   
    25     9    31 1   
    26    10    11 1   
    27    10    20 1   
    28    10    32 1   
    29    10    33 1   
    30    11    12 1   
    31    11    21 1   
    32    11    34 1   
    33    12    22 1   
    34    12    35 1   
    35    12    36 1   
    36    13    37 1   
    37    14    16 1   
    38    14    17 1   
    39    14    18 1   
    40    15    38 1   
    41    15    39 1   
    42    19    40 1   
    43    19    41 1   
    44    21    42 1   
@<TRIPOS>SUBSTRUCTURE
     1 A1A         1 TEMP              0 ****  ****    0 ROOT
