@<TRIPOS>MOLECULE
A1A
   58    62     1     0     0
SMALL
No Charge or Current Charge


@<TRIPOS>ATOM
      1 N1           4.1700   -14.5350    16.2850 nb         1 A1A      -0.298000
      2 N3           8.1130   -15.7010    16.5790 na         1 A1A      -0.311400
      3 C4           4.5840   -15.5820    17.0260 ca         1 A1A       0.427900
      4 C5           5.1300   -13.8510    15.6170 ca         1 A1A       0.173900
      5 C6           6.8540   -15.1600    16.3560 ca         1 A1A       0.148500
      6 C7           8.0250   -16.8060    17.4390 cc         1 A1A       0.036700
      7 C8           9.1190   -17.6110    17.8920 cc         1 A1A      -0.161800
      8 C13          5.9440   -15.9090    17.0670 ca         1 A1A      -0.247800
      9 C15          1.6120   -13.5260    18.4400 ca         1 A1A      -0.030000
     10 C17          2.1370   -12.4050    20.5520 ca         1 A1A       0.013700
     11 C20          2.9310   -12.2340    23.5060 c6         1 A1A      -0.306400
     12 C21          3.0160   -11.0040    22.5790 c6         1 A1A      -0.056400
     13 C22          2.0230   -11.1260    21.4000 c6         1 A1A      -0.049100
     14 S            3.4990   -13.7150    22.6460 sy         1 A1A       1.051500
     15 O            4.9520   -13.5930    22.4660 o          1 A1A      -0.524000
     16 C16          1.5730   -12.3880    19.2620 ca         1 A1A      -0.131000
     17 C18          2.7400   -13.6010    21.0160 ca         1 A1A      -0.247500
     18 C19          2.7760   -14.7410    20.1880 ca         1 A1A      -0.010000
     19 C14          2.2110   -14.7130    18.8970 ca         1 A1A      -0.111300
     20 C3           2.2440   -15.9510    17.9960 c3         1 A1A       0.284800
     21 C1           1.4670   -17.1650    18.5970 c3         1 A1A      -0.068700
     22 C2           1.4240   -18.3750    17.6270 c3         1 A1A      -0.087100
     23 C            0.0270   -16.7810    19.0260 c3         1 A1A      -0.087100
     24 N            3.6440   -16.3160    17.7330 nu         1 A1A      -0.918100
     25 N2           6.4620   -14.1100    15.6120 nb         1 A1A      -0.225000
     26 C12          6.6880   -16.9450    17.7490 cd         1 A1A      -0.209200
     27 C11          9.0240   -18.6810    18.7270 cd         1 A1A      -0.145000
     28 N5          10.3460   -19.1230    18.8660 na         1 A1A       0.137800
     29 N4          11.2540   -18.3560    18.1400 nd         1 A1A      -0.517800
     30 C9          10.4750   -17.4580    17.5690 cc         1 A1A       0.247900
     31 H1           8.9680   -15.3410    16.1740 hn         1 A1A       0.362000
     32 H10          4.7980   -13.0040    15.0190 h5         1 A1A       0.041100
     33 H17          1.1710   -13.4820    17.4470 ha         1 A1A       0.124000
     34 H21          1.8980   -12.4350    23.8140 h1         1 A1A       0.105700
     35 H20          3.5700   -12.1320    24.3910 h1         1 A1A       0.105700
     36 H22          2.7880   -10.0940    23.1520 hc         1 A1A       0.066200
     37 H23          4.0400   -10.8780    22.1980 hc         1 A1A       0.066200
     38 H24          0.9980   -11.0590    21.7900 hc         1 A1A       0.064200
     39 H25          2.1470   -10.2480    20.7510 hc         1 A1A       0.064200
     40 H18          1.0970   -11.4840    18.8910 ha         1 A1A       0.116000
     41 H19          3.2500   -15.6540    20.5450 ha         1 A1A       0.126000
     42 H            1.7550   -15.6980    17.0430 h1         1 A1A       0.088700
     43 H5           1.9920   -17.4920    19.5030 hc         1 A1A       0.048700
     44 H6           2.4330   -18.7320    17.3890 hc         1 A1A       0.038533
     45 H8           0.8750   -19.2120    18.0760 hc         1 A1A       0.038533
     46 H7           0.9260   -18.1040    16.6880 hc         1 A1A       0.038533
     47 H2           0.0350   -16.0140    19.8090 hc         1 A1A       0.038533
     48 H3          -0.5450   -16.3960    18.1720 hc         1 A1A       0.038533
     49 H4          -0.5030   -17.6530    19.4270 hc         1 A1A       0.038533
     50 H9           4.0210   -17.1070    18.2470 hn         1 A1A       0.491000
     51 H16          6.2780   -17.7120    18.4000 ha         1 A1A       0.198000
     52 H15          8.1780   -19.1500    19.2150 h4         1 A1A       0.159000
     53 H11         10.9210   -16.7100    16.9280 h4         1 A1A       0.036100
     54 C10         10.8020   -20.2630    19.6720 c3         1 A1A       0.067900
     55 O1           2.9400   -14.8880    23.3320 o          1 A1A      -0.524000
     56 H13         11.2990   -20.9940    19.0240 h1         1 A1A       0.060367
     57 H14         11.5080   -19.9130    20.4350 h1         1 A1A       0.060367
     58 H12          9.9440   -20.7370    20.1630 h1         1 A1A       0.060367
@<TRIPOS>BOND
     1     1     3 ar  
     2     1     4 ar  
     3     2     5 1   
     4     2     6 1   
     5     2    31 1   
     6     3     8 ar  
     7     3    24 1   
     8     4    25 ar  
     9     4    32 1   
    10     5     8 ar  
    11     5    25 ar  
    12     6     7 1   
    13     6    26 2   
    14     7    27 2   
    15     7    30 1   
    16     8    26 1   
    17     9    16 ar  
    18     9    19 ar  
    19     9    33 1   
    20    10    13 1   
    21    10    16 ar  
    22    10    17 ar  
    23    11    12 1   
    24    11    14 1   
    25    11    34 1   
    26    11    35 1   
    27    12    13 1   
    28    12    36 1   
    29    12    37 1   
    30    13    38 1   
    31    13    39 1   
    32    14    15 2   
    33    14    17 1   
    34    14    55 2   
    35    16    40 1   
    36    17    18 ar  
    37    18    19 ar  
    38    18    41 1   
    39    19    20 1   
    40    20    21 1   
    41    20    24 1   
    42    20    42 1   
    43    21    22 1   
    44    21    23 1   
    45    21    43 1   
    46    22    44 1   
    47    22    45 1   
    48    22    46 1   
    49    23    47 1   
    50    23    48 1   
    51    23    49 1   
    52    24    50 1   
    53    26    51 1   
    54    27    28 1   
    55    27    52 1   
    56    28    29 1   
    57    28    54 1   
    58    29    30 2   
    59    30    53 1   
    60    54    56 1   
    61    54    57 1   
    62    54    58 1   
@<TRIPOS>SUBSTRUCTURE
     1 A1A         1 TEMP              0 ****  ****    0 ROOT
