@<TRIPOS>MOLECULE
A1A
   51    53     1     0     0
SMALL
abcg2


@<TRIPOS>ATOM
      1 C10        136.8930   140.3750   131.5770 ca         1 A1A       0.161000
      2 C12        138.2520   140.5490   131.7580 ca         1 A1A      -0.139000
      3 C13        142.5910   142.1630   130.9120 c3         1 A1A       0.178800
      4 C15        141.8260   141.4560   128.7520 c6         1 A1A       0.177800
      5 C16        141.2320   141.9270   127.4180 c6         1 A1A      -0.091400
      6 C17        140.4050   143.1940   127.6220 c6         1 A1A       0.246500
      7 C18        141.3200   144.3150   128.1240 c6         1 A1A      -0.091400
      8 C19        142.3820   143.7610   129.0840 c6         1 A1A       0.177800
      9 C21        138.4250   143.4350   126.1410 ca         1 A1A       0.394900
     10 C02        142.2020   143.0050   132.1270 c3         1 A1A       0.177300
     11 C03        140.6980   143.1670   132.2610 c3         1 A1A       0.139600
     12 C05        138.7610   141.8090   132.0770 ca         1 A1A       0.162100
     13 C06        137.8850   142.8850   132.2130 ca         1 A1A      -0.194000
     14 C07        136.5250   142.6940   132.0300 ca         1 A1A      -0.052000
     15 C08        136.0160   141.4470   131.7140 ca         1 A1A       0.080000
     16 C23        136.7480   143.6080   124.6250 ca         1 A1A       0.156900
     17 C24        135.8100   143.1690   125.5590 ca         1 A1A      -0.247000
     18 C25        136.3330   142.8870   126.8020 ca         1 A1A       0.063300
     19 C27        135.4750   142.4370   127.9580 c3         1 A1A       0.263700
     20 F28        135.4920   143.3520   128.9310 f          1 A1A      -0.102000
     21 F29        135.9240   141.2910   128.4700 f          1 A1A      -0.102000
     22 F30        134.2010   142.2510   127.6070 f          1 A1A      -0.102000
     23 N14        141.8920   142.5470   129.7100 n3         1 A1A      -0.740600
     24 N20        139.7290   143.5950   126.4070 nu         1 A1A      -0.916100
     25 N22        138.0270   143.7470   124.8930 nb         1 A1A      -0.237000
     26 N26        137.6120   143.0030   127.1080 nb         1 A1A      -0.219000
     27 O01        142.7880   142.3730   133.2430 oh         1 A1A      -0.649000
     28 O04        140.0880   141.8870   132.2380 os         1 A1A      -0.326100
     29 CL09       134.3200   141.2430   131.4820 cl         1 A1A      -0.178000
     30 CL11       136.3020   138.8110   131.1610 cl         1 A1A      -0.174000
     31 H121       138.9270   139.7120   131.6430 ha         1 A1A       0.142000
     32 H132       142.3410   141.1220   131.1310 h1         1 A1A       0.053200
     33 H131       143.6860   142.1970   130.7900 h1         1 A1A       0.053200
     34 H152       141.2000   140.6690   129.1820 h1         1 A1A       0.035950
     35 H151       142.8170   141.0100   128.5700 h1         1 A1A       0.035950
     36 H162       140.6190   141.1350   126.9840 hc         1 A1A       0.047950
     37 H161       142.0240   142.1400   126.6950 hc         1 A1A       0.047950
     38 H171       139.6360   142.9990   128.3670 h1         1 A1A       0.106700
     39 H181       141.8150   144.7920   127.2750 hc         1 A1A       0.047950
     40 H182       140.7160   145.0820   128.6120 hc         1 A1A       0.047950
     41 H192       143.3310   143.5830   128.5520 h1         1 A1A       0.035950
     42 H191       142.6020   144.5050   129.8500 h1         1 A1A       0.035950
     43 H021       142.5940   144.0250   132.0120 h1         1 A1A       0.030700
     44 H032       140.4590   143.6890   133.1950 h1         1 A1A       0.042700
     45 H031       140.3300   143.7800   131.4330 h1         1 A1A       0.042700
     46 H061       138.2380   143.8750   132.4640 ha         1 A1A       0.120000
     47 H071       135.8510   143.5330   132.1400 ha         1 A1A       0.129000
     48 H231       136.4350   143.8570   123.6170 h4         1 A1A       0.027100
     49 H241       134.7670   143.0700   125.3070 ha         1 A1A       0.152000
     50 H201       140.3000   143.8810   125.6270 hn         1 A1A       0.500000
     51 H011       142.7250   142.9640   134.0000 ho         1 A1A       0.445000
@<TRIPOS>BOND
     1     1     2 ar  
     2     1    15 ar  
     3     1    30 1   
     4     2    12 ar  
     5     2    31 1   
     6     3    10 1   
     7     3    23 1   
     8     3    32 1   
     9     3    33 1   
    10     4     5 1   
    11     4    23 1   
    12     4    34 1   
    13     4    35 1   
    14     5     6 1   
    15     5    36 1   
    16     5    37 1   
    17     6     7 1   
    18     6    24 1   
    19     6    38 1   
    20     7     8 1   
    21     7    39 1   
    22     7    40 1   
    23     8    23 1   
    24     8    41 1   
    25     8    42 1   
    26     9    24 1   
    27     9    25 ar  
    28     9    26 ar  
    29    10    11 1   
    30    10    27 1   
    31    10    43 1   
    32    11    28 1   
    33    11    44 1   
    34    11    45 1   
    35    12    13 ar  
    36    12    28 1   
    37    13    14 ar  
    38    13    46 1   
    39    14    15 ar  
    40    14    47 1   
    41    15    29 1   
    42    16    17 ar  
    43    16    25 ar  
    44    16    48 1   
    45    17    18 ar  
    46    17    49 1   
    47    18    19 1   
    48    18    26 ar  
    49    19    20 1   
    50    19    21 1   
    51    19    22 1   
    52    24    50 1   
    53    27    51 1   
@<TRIPOS>SUBSTRUCTURE
     1 A1A         1 TEMP              0 ****  ****    0 ROOT
