@<TRIPOS>MOLECULE
A1A
   43    44     1     0     0
SMALL
abcg2


@<TRIPOS>ATOM
      1 C11        138.3100   141.4020   131.6100 ca         1 A1A       0.145100
      2 C13        136.7490   141.0820   133.4080 ca         1 A1A      -0.077000
      3 C14        137.6940   140.3800   134.1380 ca         1 A1A      -0.100000
      4 C15        138.9590   140.1960   133.5890 ca         1 A1A      -0.157300
      5 C16        139.2700   140.6990   132.3360 ca         1 A1A      -0.102000
      6 C21        139.0800   144.8870   125.8070 c6         1 A1A       0.170300
      7 C02        138.3610   145.0290   123.3940 c6         1 A1A       0.153500
      8 C03        137.2350   144.0720   123.7590 c6         1 A1A      -0.092400
      9 C04        136.8720   144.1820   125.2310 c6         1 A1A       0.170300
     10 C06        137.6380   143.8880   127.4860 c3         1 A1A       0.176800
     11 C07        138.5500   143.0350   128.3620 c3         1 A1A       0.173300
     12 C09        137.8050   142.6310   129.6270 c3         1 A1A       0.124600
     13 C12        137.0410   141.5960   132.1520 ca         1 A1A      -0.170000
     14 C17        140.0030   139.4070   134.3190 c3         1 A1A       0.355300
     15 C22        139.5260   144.8040   124.3550 c6         1 A1A      -0.092400
     16 F18        141.2150   139.9690   134.2310 f          1 A1A      -0.112667
     17 F19        140.1200   138.1670   133.8180 f          1 A1A      -0.112667
     18 F20        139.7300   139.2720   135.6210 f          1 A1A      -0.112667
     19 N01        138.6970   144.8980   121.9840 n8         1 A1A      -0.988200
     20 N05        138.0220   143.9270   126.0860 n3         1 A1A      -0.722600
     21 O08        139.7210   143.7550   128.6760 oh         1 A1A      -0.660000
     22 O10        138.6970   141.8480   130.4030 os         1 A1A      -0.356100
     23 H131       135.7610   141.2350   133.8220 ha         1 A1A       0.120000
     24 H141       137.4400   139.9920   135.1130 ha         1 A1A       0.134000
     25 H161       140.2520   140.5590   131.9000 ha         1 A1A       0.141000
     26 H212       138.7420   145.9170   126.0260 h1         1 A1A       0.035950
     27 H021       137.9930   146.0520   123.5460 h1         1 A1A       0.056700
     28 H032       136.3520   144.2760   123.1500 hc         1 A1A       0.049700
     29 H031       137.5500   143.0450   123.5420 hc         1 A1A       0.049700
     30 H042       136.4420   145.1810   125.4230 h1         1 A1A       0.035950
     31 H041       136.0920   143.4540   125.4680 h1         1 A1A       0.035950
     32 H062       137.5500   144.8950   127.9260 h1         1 A1A       0.039200
     33 H061       136.6400   143.4470   127.5380 h1         1 A1A       0.039200
     34 H071       138.7880   142.1200   127.8000 h1         1 A1A       0.059700
     35 H091       137.4870   143.5200   130.1850 h1         1 A1A       0.045200
     36 H092       136.9120   142.0540   129.3650 h1         1 A1A       0.045200
     37 H121       136.2750   142.1370   131.6140 ha         1 A1A       0.122000
     38 H222       139.9610   143.8160   124.1640 hc         1 A1A       0.049700
     39 H221       140.3120   145.5420   124.1750 hc         1 A1A       0.049700
     40 H012       139.4440   145.5440   121.7550 hn         1 A1A       0.391500
     41 H1         139.0800   143.9730   121.8190 hn         1 A1A       0.391500
     42 H081       140.3260   143.1680   129.1410 ho         1 A1A       0.459000
     43 H211       139.9270   144.6910   126.4620 h1         1 A1A       0.035950
@<TRIPOS>BOND
     1     1     5 ar  
     2     1    13 ar  
     3     1    22 1   
     4     2     3 ar  
     5     2    13 ar  
     6     2    23 1   
     7     3     4 ar  
     8     3    24 1   
     9     4     5 ar  
    10     4    14 1   
    11     5    25 1   
    12     6    15 1   
    13     6    20 1   
    14     6    26 1   
    15     6    43 1   
    16     7     8 1   
    17     7    15 1   
    18     7    19 1   
    19     7    27 1   
    20     8     9 1   
    21     8    28 1   
    22     8    29 1   
    23     9    20 1   
    24     9    30 1   
    25     9    31 1   
    26    10    11 1   
    27    10    20 1   
    28    10    32 1   
    29    10    33 1   
    30    11    12 1   
    31    11    21 1   
    32    11    34 1   
    33    12    22 1   
    34    12    35 1   
    35    12    36 1   
    36    13    37 1   
    37    14    16 1   
    38    14    17 1   
    39    14    18 1   
    40    15    38 1   
    41    15    39 1   
    42    19    40 1   
    43    19    41 1   
    44    21    42 1   
@<TRIPOS>SUBSTRUCTURE
     1 A1A         1 TEMP              0 ****  ****    0 ROOT
