@<TRIPOS>MOLECULE
A1A
   62    66     1     0     0
SMALL
No Charge or Current Charge


@<TRIPOS>ATOM
      1 N1           7.8210   -14.5770    14.6400 nb         1 A1A      -0.220000
      2 N3           5.0050   -16.5830    16.9250 nu         1 A1A      -0.916100
      3 C4           8.3120   -15.9540    18.6810 c5         1 A1A      -0.081400
      4 C5           7.8840   -16.9790    17.5870 c5         1 A1A       0.157000
      5 C6           7.3500   -16.1220    16.4340 ca         1 A1A      -0.266300
      6 C7           8.2460   -15.3870    15.6280 ca         1 A1A       0.157300
      7 C8           6.4880   -14.4920    14.4700 ca         1 A1A       0.163900
      8 C10          3.7300   -15.9850    17.3450 c3         1 A1A       0.282800
      9 C13          3.9730   -12.3220    18.4670 ca         1 A1A      -0.129000
     10 C15          4.9900   -13.7020    20.1910 ca         1 A1A      -0.245500
     11 C17          5.6910   -12.3220    22.5800 c6         1 A1A      -0.304400
     12 C20          2.8490   -17.0360    18.0900 c3         1 A1A      -0.067700
     13 C21          2.4750   -18.2370    17.1820 c3         1 A1A      -0.088600
     14 C22          1.5650   -16.4030    18.6840 c3         1 A1A      -0.088600
     15 S            5.8400   -13.9240    21.7640 sy         1 A1A       1.047500
     16 O1           5.0950   -14.9140    22.5540 o          1 A1A      -0.524500
     17 C18          5.9720   -11.1790    21.5820 c6         1 A1A      -0.056400
     18 C19          4.8800   -11.1160    20.4890 c6         1 A1A      -0.049100
     19 C14          4.6300   -12.4190    19.7090 ca         1 A1A       0.012700
     20 C12          3.6840   -13.4680    17.7100 ca         1 A1A      -0.031000
     21 C16          4.6980   -14.8500    19.4270 ca         1 A1A      -0.015000
     22 C11          4.0390   -14.7430    18.1860 ca         1 A1A      -0.112300
     23 C9           5.9800   -15.9500    16.1640 ca         1 A1A       0.393900
     24 C3           9.8350   -15.7030    18.4200 c5         1 A1A      -0.080400
     25 N            9.1830   -17.4990    17.1370 n          1 A1A      -0.405800
     26 C1           9.2880   -18.6710    16.3610 c          1 A1A       0.613100
     27 O            8.3110   -19.3790    16.1490 o          1 A1A      -0.597100
     28 C           10.6720   -19.0920    15.8660 c3         1 A1A      -0.176100
     29 N2           5.5450   -15.1350    15.1860 nb         1 A1A      -0.261000
     30 C23          9.7590   -15.4950    15.8250 c6         1 A1A      -0.157700
     31 C2          10.1310   -16.3780    17.0490 c5         1 A1A       0.101700
     32 H11          5.3480   -17.3390    17.5080 hn         1 A1A       0.488000
     33 H8           8.1620   -16.3720    19.6830 hc         1 A1A       0.058700
     34 H9           7.7240   -15.0290    18.6430 hc         1 A1A       0.058700
     35 H1           7.1930   -17.7550    17.9450 h1         1 A1A       0.089700
     36 H10          6.1360   -13.8350    13.6760 h5         1 A1A       0.043100
     37 H2           3.1690   -15.6680    16.4530 h1         1 A1A       0.089700
     38 H16          4.6690   -12.2710    22.9730 h1         1 A1A       0.107200
     39 H15          6.4090   -12.3350    23.4090 h1         1 A1A       0.107200
     40 H21          3.4280   -17.4350    18.9320 hc         1 A1A       0.048700
     41 H22          1.8610   -18.9610    17.7310 hc         1 A1A       0.039867
     42 H24          1.9070   -17.9010    16.3060 hc         1 A1A       0.039867
     43 H23          3.3700   -18.7640    16.8290 hc         1 A1A       0.039867
     44 H25          0.9560   -17.1630    19.1890 hc         1 A1A       0.039867
     45 H26          1.8070   -15.6310    19.4250 hc         1 A1A       0.039867
     46 H27          0.9560   -15.9440    17.8960 hc         1 A1A       0.039867
     47 H17          6.0040   -10.2200    22.1180 hc         1 A1A       0.066200
     48 H18          6.9610   -11.3060    21.1200 hc         1 A1A       0.066200
     49 H19          3.9330   -10.8010    20.9490 hc         1 A1A       0.064700
     50 H20          5.1430   -10.3160    19.7830 hc         1 A1A       0.064700
     51 H12          3.1810   -13.3620    16.7510 ha         1 A1A       0.124000
     52 H14          4.9890   -15.8310    19.7970 ha         1 A1A       0.123000
     53 H6          10.4350   -16.1720    19.2080 hc         1 A1A       0.057200
     54 H7          10.0910   -14.6370    18.4260 hc         1 A1A       0.057200
     55 H5          10.6660   -20.0800    15.3910 hc         1 A1A       0.060367
     56 H4          11.0550   -18.3290    15.1800 hc         1 A1A       0.060367
     57 H3          11.3830   -19.0460    16.6980 hc         1 A1A       0.060367
     58 H28         10.1990   -15.9350    14.9210 hc         1 A1A       0.072200
     59 H29         10.2050   -14.4980    15.9320 hc         1 A1A       0.072200
     60 H           11.1830   -16.6880    16.9830 h1         1 A1A       0.070700
     61 H13          3.6810   -11.3470    18.0830 ha         1 A1A       0.117000
     62 O2           7.2630   -14.1390    21.4710 o          1 A1A      -0.524500
@<TRIPOS>BOND
     1     1     6 ar  
     2     1     7 ar  
     3     2     8 1   
     4     2    23 1   
     5     2    32 1   
     6     3     4 1   
     7     3    24 1   
     8     3    33 1   
     9     3    34 1   
    10     4     5 1   
    11     4    25 1   
    12     4    35 1   
    13     5     6 ar  
    14     5    23 ar  
    15     6    30 1   
    16     7    29 ar  
    17     7    36 1   
    18     8    12 1   
    19     8    22 1   
    20     8    37 1   
    21     9    19 ar  
    22     9    20 ar  
    23     9    61 1   
    24    10    15 1   
    25    10    19 ar  
    26    10    21 ar  
    27    11    15 1   
    28    11    17 1   
    29    11    38 1   
    30    11    39 1   
    31    12    13 1   
    32    12    14 1   
    33    12    40 1   
    34    13    41 1   
    35    13    42 1   
    36    13    43 1   
    37    14    44 1   
    38    14    45 1   
    39    14    46 1   
    40    15    16 2   
    41    15    62 2   
    42    17    18 1   
    43    17    47 1   
    44    17    48 1   
    45    18    19 1   
    46    18    49 1   
    47    18    50 1   
    48    20    22 ar  
    49    20    51 1   
    50    21    22 ar  
    51    21    52 1   
    52    23    29 ar  
    53    24    31 1   
    54    24    53 1   
    55    24    54 1   
    56    25    26 1   
    57    25    31 1   
    58    26    27 2   
    59    26    28 1   
    60    28    55 1   
    61    28    56 1   
    62    28    57 1   
    63    30    31 1   
    64    30    58 1   
    65    30    59 1   
    66    31    60 1   
@<TRIPOS>SUBSTRUCTURE
     1 A1A         1 TEMP              0 ****  ****    0 ROOT
