@<TRIPOS>MOLECULE
A1A
   67    71     1     0     0
SMALL
abcg2


@<TRIPOS>ATOM
      1 N1           8.3830    -8.0490    14.8770 nb         1 A1A      -0.308000
      2 N3           4.7950    -9.7970    15.1300 na         1 A1A      -0.310400
      3 C4           8.0970    -9.0990    14.1070 ca         1 A1A       0.448900
      4 C5           7.4500    -7.5880    15.7100 ca         1 A1A       0.191900
      5 C6           5.9500    -9.0970    15.1310 ca         1 A1A       0.161500
      6 C7           4.8990   -10.8450    14.2370 cc         1 A1A      -0.168300
      7 C8           3.8610   -11.8660    13.9790 c          1 A1A       0.642300
      8 C10          0.1740   -11.9260    14.1900 c5         1 A1A      -0.093400
      9 C13          1.3560   -13.3490    15.7440 c5         1 A1A       0.138800
     10 C15          6.8150    -9.6910    14.2050 ca         1 A1A      -0.276800
     11 C17         10.9840    -6.6400    13.0520 ca         1 A1A      -0.028000
     12 C20         10.3640    -6.5950    10.3800 ca         1 A1A      -0.246500
     13 C21         10.2080    -7.7730    11.1040 ca         1 A1A      -0.003000
     14 C22         10.5680    -5.1700     7.9930 c6         1 A1A      -0.306400
     15 C24         11.0260    -4.1220    10.2210 c6         1 A1A      -0.050100
     16 S            9.8900    -6.6720     8.6690 sy         1 A1A       1.049500
     17 O1          10.5380    -7.8250     8.0470 o          1 A1A      -0.522000
     18 C23         10.2570    -4.0030     8.9140 c6         1 A1A      -0.054400
     19 C19         10.8180    -5.4140    10.9670 ca         1 A1A       0.012700
     20 C18         11.1270    -5.4720    12.3250 ca         1 A1A      -0.133000
     21 C16         10.5240    -7.8090    12.4530 ca         1 A1A      -0.106300
     22 C3          10.4040    -9.0890    13.2530 c3         1 A1A       0.291800
     23 C1          11.3420   -10.1950    12.7410 c3         1 A1A      -0.073700
     24 C2          11.2650   -11.4310    13.6350 c3         1 A1A      -0.089600
     25 C           12.7790    -9.6900    12.6710 c3         1 A1A      -0.089600
     26 N            9.0390    -9.5750    13.2830 nu         1 A1A      -0.919100
     27 N2           6.2280    -8.0400    15.8990 nb         1 A1A      -0.238000
     28 C14          6.1350   -10.8040    13.6480 cd         1 A1A      -0.116200
     29 O            4.1450   -12.8620    13.3250 o          1 A1A      -0.589100
     30 N4           2.6360   -11.6340    14.4840 ns         1 A1A      -0.502900
     31 C9           1.5500   -12.5850    14.4310 c5         1 A1A       0.102700
     32 N5          -0.0330   -13.7380    15.6830 n3         1 A1A      -0.712600
     33 C12         -0.5430   -14.3130    16.9010 c3         1 A1A       0.156100
     34 C11         -0.7350   -12.5380    15.2610 c5         1 A1A       0.156800
     35 H1           4.0370    -9.6080    15.7670 hn         1 A1A       0.358000
     36 H11          7.7430    -6.7300    16.3070 h5         1 A1A       0.043100
     37 H13          0.2240   -10.8410    14.2900 hc         1 A1A       0.054200
     38 H14         -0.1840   -12.1360    13.1830 hc         1 A1A       0.054200
     39 H20          1.5690   -12.6780    16.5960 h1         1 A1A       0.042200
     40 H21          2.0160   -14.2150    15.8310 h1         1 A1A       0.042200
     41 H23         11.2350    -6.6450    14.1050 ha         1 A1A       0.125000
     42 H25          9.8490    -8.6690    10.6120 ha         1 A1A       0.128000
     43 H26         11.6430    -5.3180     7.8750 h1         1 A1A       0.106700
     44 H27         10.1170    -5.0660     7.0040 h1         1 A1A       0.106700
     45 H30         12.0960    -4.0150    10.0140 hc         1 A1A       0.063700
     46 H31         10.7640    -3.2920    10.8790 hc         1 A1A       0.063700
     47 H29         10.5410    -3.0790     8.4100 hc         1 A1A       0.065700
     48 H28          9.1820    -3.9410     9.0960 hc         1 A1A       0.065700
     49 H24         11.4820    -4.5750    12.8190 ha         1 A1A       0.116000
     50 H           10.6980    -8.8650    14.2830 h1         1 A1A       0.079700
     51 H6          11.0250   -10.4750    11.7290 hc         1 A1A       0.053700
     52 H9          10.2670   -11.8680    13.6680 hc         1 A1A       0.039700
     53 H8          11.9460   -12.2020    13.2750 hc         1 A1A       0.039700
     54 H7          11.5540   -11.1840    14.6590 hc         1 A1A       0.039700
     55 H5          12.9000    -8.8740    11.9590 hc         1 A1A       0.039700
     56 H3          13.1140    -9.3350    13.6480 hc         1 A1A       0.039700
     57 H4          13.4470   -10.4950    12.3640 hc         1 A1A       0.039700
     58 H10          8.7900   -10.3340    12.6690 hn         1 A1A       0.503000
     59 H22          6.4960   -11.4960    12.9040 ha         1 A1A       0.220000
     60 H12          2.4520   -10.7840    14.9920 hn         1 A1A       0.304500
     61 H2           1.7670   -13.2900    13.6320 h1         1 A1A       0.099700
     62 H19          0.0160   -15.2140    17.1580 h1         1 A1A       0.032367
     63 H18         -0.4850   -13.6240    17.7590 h1         1 A1A       0.032367
     64 H17         -1.5880   -14.5980    16.7730 h1         1 A1A       0.032367
     65 H15         -0.8600   -11.8290    16.0970 h1         1 A1A       0.037700
     66 H16         -1.7330   -12.7790    14.8920 h1         1 A1A       0.037700
     67 O2           8.4300    -6.5980     8.6090 o          1 A1A      -0.522000
@<TRIPOS>BOND
     1     1     3 ar  
     2     1     4 ar  
     3     2     5 1   
     4     2     6 1   
     5     2    35 1   
     6     3    10 ar  
     7     3    26 1   
     8     4    27 ar  
     9     4    36 1   
    10     5    10 ar  
    11     5    27 ar  
    12     6     7 1   
    13     6    28 2   
    14     7    29 2   
    15     7    30 1   
    16     8    31 1   
    17     8    34 1   
    18     8    37 1   
    19     8    38 1   
    20     9    31 1   
    21     9    32 1   
    22     9    39 1   
    23     9    40 1   
    24    10    28 1   
    25    11    20 ar  
    26    11    21 ar  
    27    11    41 1   
    28    12    13 ar  
    29    12    16 1   
    30    12    19 ar  
    31    13    21 ar  
    32    13    42 1   
    33    14    16 1   
    34    14    18 1   
    35    14    43 1   
    36    14    44 1   
    37    15    18 1   
    38    15    19 1   
    39    15    45 1   
    40    15    46 1   
    41    16    17 2   
    42    16    67 2   
    43    18    47 1   
    44    18    48 1   
    45    19    20 ar  
    46    20    49 1   
    47    21    22 1   
    48    22    23 1   
    49    22    26 1   
    50    22    50 1   
    51    23    24 1   
    52    23    25 1   
    53    23    51 1   
    54    24    52 1   
    55    24    53 1   
    56    24    54 1   
    57    25    55 1   
    58    25    56 1   
    59    25    57 1   
    60    26    58 1   
    61    28    59 1   
    62    30    31 1   
    63    30    60 1   
    64    31    61 1   
    65    32    33 1   
    66    32    34 1   
    67    33    62 1   
    68    33    63 1   
    69    33    64 1   
    70    34    65 1   
    71    34    66 1   
@<TRIPOS>SUBSTRUCTURE
     1 A1A         1 TEMP              0 ****  ****    0 ROOT
