@<TRIPOS>MOLECULE
A1A
   51    53     1     0     0
SMALL
No Charge or Current Charge


@<TRIPOS>ATOM
      1 C10        136.7150   140.3680   131.8660 ca         1 A1A       0.161000
      2 C12        138.1010   140.5100   132.0380 ca         1 A1A      -0.139000
      3 C13        142.6000   142.0440   130.8820 c3         1 A1A       0.178800
      4 C15        141.9410   141.5460   128.5290 c6         1 A1A       0.177800
      5 C16        140.9540   141.9690   127.4070 c6         1 A1A      -0.091400
      6 C17        140.4660   143.4300   127.5860 c6         1 A1A       0.246500
      7 C18        141.6730   144.3450   127.8870 c6         1 A1A      -0.091400
      8 C19        142.4090   143.8790   129.1750 c6         1 A1A       0.177800
      9 C21        138.4100   143.6130   126.0950 ca         1 A1A       0.394900
     10 C02        142.2720   142.8680   132.1650 c3         1 A1A       0.177300
     11 C03        140.7430   143.1210   132.3300 c3         1 A1A       0.139600
     12 C05        138.6720   141.7820   132.2000 ca         1 A1A       0.162100
     13 C06        137.8410   142.9250   132.1950 ca         1 A1A      -0.194000
     14 C07        136.4510   142.7840   132.0240 ca         1 A1A      -0.052000
     15 C08        135.8850   141.5080   131.8590 ca         1 A1A       0.080000
     16 C23        136.7000   143.7360   124.5810 ca         1 A1A       0.156900
     17 C24        135.8420   143.1170   125.5070 ca         1 A1A      -0.247000
     18 C25        136.3750   142.7560   126.7630 ca         1 A1A       0.063300
     19 C27        135.5310   142.0950   127.8620 c3         1 A1A       0.263700
     20 F28        135.0710   143.0090   128.7460 f          1 A1A      -0.102000
     21 F29        136.2340   141.1790   128.5710 f          1 A1A      -0.102000
     22 F30        134.4500   141.4500   127.3650 f          1 A1A      -0.102000
     23 N14        141.9480   142.5350   129.6360 n3         1 A1A      -0.740600
     24 N20        139.7430   143.8870   126.3810 nu         1 A1A      -0.916100
     25 N22        137.9910   143.9870   124.8740 nb         1 A1A      -0.237000
     26 N26        137.6690   143.0150   127.0510 nb         1 A1A      -0.219000
     27 O01        142.8110   142.2030   133.3280 oh         1 A1A      -0.649000
     28 O04        140.0410   141.8600   132.3420 os         1 A1A      -0.326100
     29 Cl09       134.1390   141.3640   131.6460 cl         1 A1A      -0.178000
     30 Cl11       136.0410   138.7520   131.6530 cl         1 A1A      -0.174000
     31 H121       138.7390   139.6310   132.0380 ha         1 A1A       0.142000
     32 H132       142.2790   141.0100   131.0710 h1         1 A1A       0.053200
     33 H131       143.6900   142.0170   130.7500 h1         1 A1A       0.053200
     34 H152       141.6480   140.5510   128.8970 h1         1 A1A       0.035950
     35 H151       142.9520   141.4470   128.1080 h1         1 A1A       0.035950
     36 H162       140.0890   141.2940   127.4090 hc         1 A1A       0.047950
     37 H161       141.4450   141.8430   126.4330 hc         1 A1A       0.047950
     38 H171       139.8060   143.4750   128.4690 h1         1 A1A       0.106700
     39 H181       142.3730   144.3290   127.0410 hc         1 A1A       0.047950
     40 H182       141.3440   145.3860   128.0060 hc         1 A1A       0.047950
     41 H192       143.4930   143.8730   128.9860 h1         1 A1A       0.035950
     42 H191       142.2280   144.6250   129.9620 h1         1 A1A       0.035950
     43 H021       142.7530   143.8500   132.0630 h1         1 A1A       0.030700
     44 H032       140.5530   143.6820   133.2540 h1         1 A1A       0.042700
     45 H031       140.4050   143.7370   131.4880 h1         1 A1A       0.042700
     46 H061       138.2510   143.9220   132.3230 ha         1 A1A       0.120000
     47 H071       135.8120   143.6630   132.0190 ha         1 A1A       0.129000
     48 H231       136.3500   144.0380   123.5950 h4         1 A1A       0.027100
     49 H241       134.8010   142.9310   125.2530 ha         1 A1A       0.152000
     50 H201       140.2720   144.3230   125.6260 hn         1 A1A       0.500000
     51 H011       142.5640   142.7410   134.1110 ho         1 A1A       0.445000
@<TRIPOS>BOND
     1     1     2 ar  
     2     1    15 ar  
     3     1    30 1   
     4     2    12 ar  
     5     2    31 1   
     6     3    10 1   
     7     3    23 1   
     8     3    32 1   
     9     3    33 1   
    10     4     5 1   
    11     4    23 1   
    12     4    34 1   
    13     4    35 1   
    14     5     6 1   
    15     5    36 1   
    16     5    37 1   
    17     6     7 1   
    18     6    24 1   
    19     6    38 1   
    20     7     8 1   
    21     7    39 1   
    22     7    40 1   
    23     8    23 1   
    24     8    41 1   
    25     8    42 1   
    26     9    24 1   
    27     9    25 ar  
    28     9    26 ar  
    29    10    11 1   
    30    10    27 1   
    31    10    43 1   
    32    11    28 1   
    33    11    44 1   
    34    11    45 1   
    35    12    13 ar  
    36    12    28 1   
    37    13    14 ar  
    38    13    46 1   
    39    14    15 ar  
    40    14    47 1   
    41    15    29 1   
    42    16    17 ar  
    43    16    25 ar  
    44    16    48 1   
    45    17    18 ar  
    46    17    49 1   
    47    18    19 1   
    48    18    26 ar  
    49    19    20 1   
    50    19    21 1   
    51    19    22 1   
    52    24    50 1   
    53    27    51 1   
@<TRIPOS>SUBSTRUCTURE
     1 A1A         1 TEMP              0 ****  ****    0 ROOT
