@<TRIPOS>MOLECULE
A1A
   58    62     1     0     0
SMALL
abcg2


@<TRIPOS>ATOM
      1 N1           4.1460   -14.7980    16.2990 nb         1 A1A      -0.298000
      2 N3           7.9630   -15.9830    16.4880 na         1 A1A      -0.311400
      3 C4           4.5040   -15.7920    17.1130 ca         1 A1A       0.427900
      4 C5           5.0790   -14.2240    15.5400 ca         1 A1A       0.173900
      5 C6           6.7140   -15.4900    16.3080 ca         1 A1A       0.148500
      6 C7           7.9350   -16.9790    17.4390 cc         1 A1A       0.036700
      7 C8           9.1380   -17.6680    17.8490 cc         1 A1A      -0.161800
      8 C13          5.8540   -16.1920    17.1590 ca         1 A1A      -0.247800
      9 C15          1.6350   -13.4560    18.5160 ca         1 A1A      -0.030000
     10 C17          2.1630   -12.4040    20.6370 ca         1 A1A       0.013700
     11 C20          2.9600   -12.4340    23.5270 c6         1 A1A      -0.306400
     12 C21          3.0450   -11.1650    22.6920 c6         1 A1A      -0.056400
     13 C22          2.0590   -11.1980    21.5340 c6         1 A1A      -0.049100
     14 S            3.5720   -13.8090    22.5750 sy         1 A1A       1.051500
     15 O            5.0040   -13.6140    22.3520 o          1 A1A      -0.524000
     16 C16          1.6060   -12.3590    19.3590 ca         1 A1A      -0.131000
     17 C18          2.7460   -13.6110    21.0180 ca         1 A1A      -0.247500
     18 C19          2.7760   -14.7200    20.1800 ca         1 A1A      -0.010000
     19 C14          2.2140   -14.6550    18.9170 ca         1 A1A      -0.111300
     20 C3           2.2170   -15.8700    18.0130 c3         1 A1A       0.284800
     21 C1           1.2750   -16.9750    18.5160 c3         1 A1A      -0.068700
     22 C2           1.2330   -18.1400    17.5320 c3         1 A1A      -0.087100
     23 C           -0.1300   -16.4260    18.7450 c3         1 A1A      -0.087100
     24 N            3.5580   -16.3980    17.8560 nu         1 A1A      -0.918100
     25 N2           6.3650   -14.5030    15.4800 nb         1 A1A      -0.225000
     26 C12          6.6420   -17.1390    17.8710 cd         1 A1A      -0.209200
     27 C11          9.2730   -18.5680    18.8890 cd         1 A1A      -0.145000
     28 N5          10.5570   -18.9530    18.9100 na         1 A1A       0.137800
     29 N4          11.2780   -18.3680    17.9590 nd         1 A1A      -0.517800
     30 C9          10.4370   -17.5890    17.3070 cc         1 A1A       0.247900
     31 H1           8.7830   -15.6410    16.0120 hn         1 A1A       0.362000
     32 H10          4.7280   -13.4250    14.8940 h5         1 A1A       0.041100
     33 H17          1.1960   -13.3810    17.5280 ha         1 A1A       0.124000
     34 H21          1.9340   -12.6620    23.8200 h1         1 A1A       0.105700
     35 H20          3.5820   -12.3950    24.4240 h1         1 A1A       0.105700
     36 H22          2.8180   -10.3160    23.3360 hc         1 A1A       0.066200
     37 H23          4.0660   -11.0170    22.3340 hc         1 A1A       0.066200
     38 H24          1.0420   -11.1630    21.9380 hc         1 A1A       0.064200
     39 H25          2.1740   -10.2980    20.9290 hc         1 A1A       0.064200
     40 H18          1.1460   -11.4380    19.0220 ha         1 A1A       0.116000
     41 H19          3.2360   -15.6410    20.5200 ha         1 A1A       0.126000
     42 H            1.8650   -15.5570    17.0260 h1         1 A1A       0.088700
     43 H5           1.6580   -17.3420    19.4770 hc         1 A1A       0.048700
     44 H6           2.2090   -18.6030    17.3920 hc         1 A1A       0.038533
     45 H8           0.5500   -18.9130    17.8860 hc         1 A1A       0.038533
     46 H7           0.8780   -17.8050    16.5550 hc         1 A1A       0.038533
     47 H2          -0.1620   -15.6870    19.5450 hc         1 A1A       0.038533
     48 H3          -0.5190   -15.9560    17.8390 hc         1 A1A       0.038533
     49 H4          -0.8110   -17.2330    19.0180 hc         1 A1A       0.038533
     50 H9           3.8690   -17.0750    18.5350 hn         1 A1A       0.491000
     51 H16          6.3090   -17.8530    18.6080 ha         1 A1A       0.198000
     52 H15          8.5540   -18.9430    19.6000 h4         1 A1A       0.159000
     53 H11         10.7840   -17.0020    16.4690 h4         1 A1A       0.036100
     54 C10         11.1750   -19.8620    19.8480 c3         1 A1A       0.067900
     55 O1           3.1490   -15.0760    23.1700 o          1 A1A      -0.524000
     56 H13         12.1930   -20.0490    19.5220 h1         1 A1A       0.060367
     57 H14         11.1930   -19.4310    20.8480 h1         1 A1A       0.060367
     58 H12         10.6310   -20.8040    19.8760 h1         1 A1A       0.060367
@<TRIPOS>BOND
     1     1     3 ar  
     2     1     4 ar  
     3     2     5 1   
     4     2     6 1   
     5     2    31 1   
     6     3     8 ar  
     7     3    24 1   
     8     4    25 ar  
     9     4    32 1   
    10     5     8 ar  
    11     5    25 ar  
    12     6     7 1   
    13     6    26 2   
    14     7    27 2   
    15     7    30 1   
    16     8    26 1   
    17     9    16 ar  
    18     9    19 ar  
    19     9    33 1   
    20    10    13 1   
    21    10    16 ar  
    22    10    17 ar  
    23    11    12 1   
    24    11    14 1   
    25    11    34 1   
    26    11    35 1   
    27    12    13 1   
    28    12    36 1   
    29    12    37 1   
    30    13    38 1   
    31    13    39 1   
    32    14    15 2   
    33    14    17 1   
    34    14    55 2   
    35    16    40 1   
    36    17    18 ar  
    37    18    19 ar  
    38    18    41 1   
    39    19    20 1   
    40    20    21 1   
    41    20    24 1   
    42    20    42 1   
    43    21    22 1   
    44    21    23 1   
    45    21    43 1   
    46    22    44 1   
    47    22    45 1   
    48    22    46 1   
    49    23    47 1   
    50    23    48 1   
    51    23    49 1   
    52    24    50 1   
    53    26    51 1   
    54    27    28 1   
    55    27    52 1   
    56    28    29 1   
    57    28    54 1   
    58    29    30 2   
    59    30    53 1   
    60    54    56 1   
    61    54    57 1   
    62    54    58 1   
@<TRIPOS>SUBSTRUCTURE
     1 A1A         1 TEMP              0 ****  ****    0 ROOT
