@<TRIPOS>MOLECULE
A1A
   62    66     1     0     0
SMALL
abcg2


@<TRIPOS>ATOM
      1 N1           7.9690   -14.5130    14.9510 nb         1 A1A      -0.220000
      2 N3           5.1890   -16.4400    17.2380 nu         1 A1A      -0.916100
      3 C4           8.5410   -16.6570    18.7770 c5         1 A1A      -0.081400
      4 C5           8.0140   -17.2860    17.4820 c5         1 A1A       0.157000
      5 C6           7.4890   -16.2130    16.5550 ca         1 A1A      -0.266300
      6 C7           8.3720   -15.4880    15.7810 ca         1 A1A       0.157300
      7 C8           6.6750   -14.2690    14.9400 ca         1 A1A       0.163900
      8 C10          3.8770   -15.8600    17.4590 c3         1 A1A       0.282800
      9 C13          3.4980   -12.2540    18.6360 ca         1 A1A      -0.129000
     10 C15          4.8670   -13.4130    20.1870 ca         1 A1A      -0.245500
     11 C17          5.5930   -12.0270    22.4900 c6         1 A1A      -0.304400
     12 C20          2.9600   -16.9020    18.1210 c3         1 A1A      -0.067700
     13 C21          2.8320   -18.1520    17.2550 c3         1 A1A      -0.088600
     14 C22          1.5820   -16.3130    18.4000 c3         1 A1A      -0.088600
     15 S            5.9640   -13.5110    21.5790 sy         1 A1A       1.047500
     16 O1           5.6260   -14.6910    22.3730 o          1 A1A      -0.524500
     17 C18          5.5360   -10.8450    21.5350 c6         1 A1A      -0.056400
     18 C19          4.3380   -10.9430    20.6020 c6         1 A1A      -0.049100
     19 C14          4.2550   -12.2190    19.8060 ca         1 A1A       0.012700
     20 C12          3.3750   -13.4090    17.8840 ca         1 A1A      -0.031000
     21 C16          4.7380   -14.5810    19.4460 ca         1 A1A      -0.015000
     22 C11          3.9930   -14.5910    18.2780 ca         1 A1A      -0.112300
     23 C9           6.1330   -15.8320    16.4870 ca         1 A1A       0.393900
     24 C3           9.9270   -16.1230    18.3620 c5         1 A1A      -0.080400
     25 N            9.2320   -17.8260    16.9130 n          1 A1A      -0.405800
     26 C1           9.2670   -18.9160    16.1150 c          1 A1A       0.613100
     27 O            8.2770   -19.6090    15.9290 o          1 A1A      -0.597100
     28 C           10.6070   -19.2470    15.5060 c3         1 A1A      -0.176100
     29 N2           5.7400   -14.8590    15.6640 nb         1 A1A      -0.261000
     30 C23          9.8500   -15.7630    15.8380 c6         1 A1A      -0.157700
     31 C2          10.1930   -16.7330    16.9690 c5         1 A1A       0.101700
     32 H11          5.5050   -17.0890    17.9410 hn         1 A1A       0.488000
     33 H8           8.6340   -17.4260    19.5450 hc         1 A1A       0.058700
     34 H9           7.8830   -15.8790    19.1630 hc         1 A1A       0.058700
     35 H1           7.2900   -18.0810    17.6500 h1         1 A1A       0.089700
     36 H10          6.3330   -13.4870    14.2690 h5         1 A1A       0.043100
     37 H2           3.4470   -15.6050    16.4880 h1         1 A1A       0.089700
     38 H16          4.6420   -12.1830    23.0020 h1         1 A1A       0.107200
     39 H15          6.3850   -11.9320    23.2360 h1         1 A1A       0.107200
     40 H21          3.4120   -17.1840    19.0810 hc         1 A1A       0.048700
     41 H22          2.1740   -18.8780    17.7330 hc         1 A1A       0.039867
     42 H24          2.4000   -17.9040    16.2830 hc         1 A1A       0.039867
     43 H23          3.7900   -18.6420    17.0800 hc         1 A1A       0.039867
     44 H25          0.9350   -17.0670    18.8510 hc         1 A1A       0.039867
     45 H26          1.6220   -15.4640    19.0820 hc         1 A1A       0.039867
     46 H27          1.1050   -15.9790    17.4760 hc         1 A1A       0.039867
     47 H17          5.4610    -9.9310    22.1250 hc         1 A1A       0.066200
     48 H18          6.4660   -10.7740    20.9670 hc         1 A1A       0.066200
     49 H19          3.4210   -10.8510    21.1930 hc         1 A1A       0.064700
     50 H20          4.3400   -10.0960    19.9150 hc         1 A1A       0.064700
     51 H12          2.7960   -13.3900    16.9680 ha         1 A1A       0.124000
     52 H14          5.2320   -15.4870    19.7800 ha         1 A1A       0.123000
     53 H6          10.6930   -16.4350    19.0700 hc         1 A1A       0.057200
     54 H7           9.9540   -15.0340    18.3200 hc         1 A1A       0.057200
     55 H5          10.5310   -20.1750    14.9440 hc         1 A1A       0.060367
     56 H4          10.9430   -18.4620    14.8280 hc         1 A1A       0.060367
     57 H3          11.3740   -19.3650    16.2720 hc         1 A1A       0.060367
     58 H28         10.1700   -16.1710    14.8740 hc         1 A1A       0.072200
     59 H29         10.3880   -14.8190    15.9630 hc         1 A1A       0.072200
     60 H           11.2160   -17.0900    16.8710 h1         1 A1A       0.070700
     61 H13          3.0080   -11.3470    18.3030 ha         1 A1A       0.117000
     62 O2           7.3310   -13.4160    21.0640 o          1 A1A      -0.524500
@<TRIPOS>BOND
     1     1     6 ar  
     2     1     7 ar  
     3     2     8 1   
     4     2    23 1   
     5     2    32 1   
     6     3     4 1   
     7     3    24 1   
     8     3    33 1   
     9     3    34 1   
    10     4     5 1   
    11     4    25 1   
    12     4    35 1   
    13     5     6 ar  
    14     5    23 ar  
    15     6    30 1   
    16     7    29 ar  
    17     7    36 1   
    18     8    12 1   
    19     8    22 1   
    20     8    37 1   
    21     9    19 ar  
    22     9    20 ar  
    23     9    61 1   
    24    10    15 1   
    25    10    19 ar  
    26    10    21 ar  
    27    11    15 1   
    28    11    17 1   
    29    11    38 1   
    30    11    39 1   
    31    12    13 1   
    32    12    14 1   
    33    12    40 1   
    34    13    41 1   
    35    13    42 1   
    36    13    43 1   
    37    14    44 1   
    38    14    45 1   
    39    14    46 1   
    40    15    16 2   
    41    15    62 2   
    42    17    18 1   
    43    17    47 1   
    44    17    48 1   
    45    18    19 1   
    46    18    49 1   
    47    18    50 1   
    48    20    22 ar  
    49    20    51 1   
    50    21    22 ar  
    51    21    52 1   
    52    23    29 ar  
    53    24    31 1   
    54    24    53 1   
    55    24    54 1   
    56    25    26 1   
    57    25    31 1   
    58    26    27 2   
    59    26    28 1   
    60    28    55 1   
    61    28    56 1   
    62    28    57 1   
    63    30    31 1   
    64    30    58 1   
    65    30    59 1   
    66    31    60 1   
@<TRIPOS>SUBSTRUCTURE
     1 A1A         1 TEMP              0 ****  ****    0 ROOT
