@<TRIPOS>MOLECULE
A1A
   67    71     1     0     0
SMALL
No Charge or Current Charge


@<TRIPOS>ATOM
      1 N1           8.5270    -7.8350    15.2720 nb         1 A1A      -0.308000
      2 N3           4.6960    -9.3210    15.0170 na         1 A1A      -0.310400
      3 C4           8.1980    -8.9390    14.5740 ca         1 A1A       0.448900
      4 C5           7.5120    -7.2020    15.9110 ca         1 A1A       0.191900
      5 C6           5.9040    -8.6730    15.2210 ca         1 A1A       0.161500
      6 C7           4.8550   -10.4680    14.1930 cc         1 A1A      -0.168300
      7 C8           3.8880   -11.4810    13.6880 c          1 A1A       0.642300
      8 C10          0.1960   -11.5090    14.0550 c5         1 A1A      -0.093400
      9 C13          1.6340   -13.4150    14.6900 c5         1 A1A       0.138800
     10 C15          6.8700    -9.3720    14.5450 ca         1 A1A      -0.276800
     11 C17         11.0690    -6.7270    13.1610 ca         1 A1A      -0.028000
     12 C20         10.0000    -6.9390    10.5680 ca         1 A1A      -0.246500
     13 C21         10.0170    -8.0570    11.4260 ca         1 A1A      -0.003000
     14 C22          9.7770    -5.6520     8.0390 c6         1 A1A      -0.306400
     15 C24         10.5730    -4.4350    10.1300 c6         1 A1A      -0.050100
     16 S            9.2840    -7.1420     8.9280 sy         1 A1A       1.049500
     17 O1           9.9280    -8.2960     8.2860 o          1 A1A      -0.522000
     18 C23          9.5980    -4.4060     8.9300 c6         1 A1A      -0.054400
     19 C19         10.5200    -5.6960    11.0100 ca         1 A1A       0.012700
     20 C18         11.0550    -5.6110    12.3100 ca         1 A1A      -0.133000
     21 C16         10.5530    -7.9610    12.7250 ca         1 A1A      -0.106300
     22 C3          10.5770    -9.1740    13.6590 c3         1 A1A       0.291800
     23 C1          11.4450   -10.3500    13.1100 c3         1 A1A      -0.073700
     24 C2          11.5430   -11.5280    14.1140 c3         1 A1A      -0.089600
     25 C           12.8670    -9.8850    12.7020 c3         1 A1A      -0.089600
     26 N            9.1980    -9.6230    13.9000 nu         1 A1A      -0.919100
     27 N2           6.2060    -7.5660    15.9220 nb         1 A1A      -0.238000
     28 C14          6.2120   -10.4870    13.9070 cd         1 A1A      -0.116200
     29 O            4.2030   -12.4240    12.9740 o          1 A1A      -0.589100
     30 N4           2.5910   -11.2550    14.1060 ns         1 A1A      -0.502900
     31 C9           1.5450   -12.2080    13.6910 c5         1 A1A       0.102700
     32 N5           0.2510   -13.5180    15.2180 n3         1 A1A      -0.712600
     33 C12          0.0830   -14.4200    16.3760 c3         1 A1A       0.156100
     34 C11         -0.1370   -12.1110    15.4420 c5         1 A1A       0.156800
     35 H1           3.8220    -8.9960    15.4160 hn         1 A1A       0.358000
     36 H11          7.7730    -6.3090    16.4750 h5         1 A1A       0.043100
     37 H13          0.2450   -10.4140    14.0660 hc         1 A1A       0.054200
     38 H14         -0.5790   -11.7820    13.3290 hc         1 A1A       0.054200
     39 H20          2.3500   -13.2210    15.5020 h1         1 A1A       0.042200
     40 H21          1.9490   -14.3380    14.1830 h1         1 A1A       0.042200
     41 H23         11.4860    -6.6310    14.1610 ha         1 A1A       0.125000
     42 H25          9.6070    -9.0060    11.0850 ha         1 A1A       0.128000
     43 H26         10.8270    -5.7960     7.7550 h1         1 A1A       0.106700
     44 H27          9.1500    -5.6130     7.1390 h1         1 A1A       0.106700
     45 H30         11.6000    -4.3150     9.7570 hc         1 A1A       0.063700
     46 H31         10.3820    -3.5500    10.7530 hc         1 A1A       0.063700
     47 H29          9.7810    -3.4980     8.3370 hc         1 A1A       0.065700
     48 H28          8.5610    -4.3340     9.2890 hc         1 A1A       0.065700
     49 H24         11.4680    -4.6700    12.6650 ha         1 A1A       0.116000
     50 H           11.0240    -8.8650    14.6160 h1         1 A1A       0.079700
     51 H6          10.9640   -10.7350    12.2020 hc         1 A1A       0.053700
     52 H9          10.5550   -11.9440    14.3410 hc         1 A1A       0.039700
     53 H8          12.1560   -12.3390    13.7020 hc         1 A1A       0.039700
     54 H7          12.0010   -11.2000    15.0560 hc         1 A1A       0.039700
     55 H5          12.8280    -9.1410    11.8980 hc         1 A1A       0.039700
     56 H3          13.3920    -9.4400    13.5570 hc         1 A1A       0.039700
     57 H4          13.4620   -10.7310    12.3380 hc         1 A1A       0.039700
     58 H10          8.8960   -10.4680    13.4260 hn         1 A1A       0.503000
     59 H22          6.6940   -11.2420    13.2870 ha         1 A1A       0.220000
     60 H12          2.4240   -10.4530    14.6960 hn         1 A1A       0.304500
     61 H2           1.5980   -12.5050    12.6340 h1         1 A1A       0.099700
     62 H19          0.3880   -15.4420    16.1160 h1         1 A1A       0.032367
     63 H18          0.6910   -14.0830    17.2260 h1         1 A1A       0.032367
     64 H17         -0.9680   -14.4470    16.6940 h1         1 A1A       0.032367
     65 H15          0.4590   -11.6450    16.2410 h1         1 A1A       0.037700
     66 H16         -1.2010   -12.0020    15.6940 h1         1 A1A       0.037700
     67 O2           7.8230    -7.1060     9.0770 o          1 A1A      -0.522000
@<TRIPOS>BOND
     1     1     3 ar  
     2     1     4 ar  
     3     2     5 1   
     4     2     6 1   
     5     2    35 1   
     6     3    10 ar  
     7     3    26 1   
     8     4    27 ar  
     9     4    36 1   
    10     5    10 ar  
    11     5    27 ar  
    12     6     7 1   
    13     6    28 2   
    14     7    29 2   
    15     7    30 1   
    16     8    31 1   
    17     8    34 1   
    18     8    37 1   
    19     8    38 1   
    20     9    31 1   
    21     9    32 1   
    22     9    39 1   
    23     9    40 1   
    24    10    28 1   
    25    11    20 ar  
    26    11    21 ar  
    27    11    41 1   
    28    12    13 ar  
    29    12    16 1   
    30    12    19 ar  
    31    13    21 ar  
    32    13    42 1   
    33    14    16 1   
    34    14    18 1   
    35    14    43 1   
    36    14    44 1   
    37    15    18 1   
    38    15    19 1   
    39    15    45 1   
    40    15    46 1   
    41    16    17 2   
    42    16    67 2   
    43    18    47 1   
    44    18    48 1   
    45    19    20 ar  
    46    20    49 1   
    47    21    22 1   
    48    22    23 1   
    49    22    26 1   
    50    22    50 1   
    51    23    24 1   
    52    23    25 1   
    53    23    51 1   
    54    24    52 1   
    55    24    53 1   
    56    24    54 1   
    57    25    55 1   
    58    25    56 1   
    59    25    57 1   
    60    26    58 1   
    61    28    59 1   
    62    30    31 1   
    63    30    60 1   
    64    31    61 1   
    65    32    33 1   
    66    32    34 1   
    67    33    62 1   
    68    33    63 1   
    69    33    64 1   
    70    34    65 1   
    71    34    66 1   
@<TRIPOS>SUBSTRUCTURE
     1 A1A         1 TEMP              0 ****  ****    0 ROOT
