@<TRIPOS>MOLECULE
A1A
  107   111     1     0     0
SMALL
abcg2


@<TRIPOS>ATOM
      1 C01         29.0650    35.2210   140.0210 c3         1 A1A      -0.084100
      2 C02         27.9220    34.6930   140.8930 c3         1 A1A      -0.089000
      3 C03         27.8830    35.3970   142.2450 c3         1 A1A      -0.084100
      4 C04         26.6190    34.8460   140.1670 cc         1 A1A       0.432700
      5 C06         24.7820    35.7770   139.3780 cd         1 A1A       0.242300
      6 C07         23.8350    36.9380   139.2710 c3         1 A1A       0.071700
      7 C09         21.4680    36.2720   139.1350 c3         1 A1A       0.095300
      8 C10         22.6600    36.8540   137.1000 c          1 A1A       0.640100
      9 C13         23.9250    37.1200   135.0640 c3         1 A1A       0.037700
     10 C14         25.3100    37.5130   134.5470 c3         1 A1A      -0.123400
     11 C15         25.7090    38.9980   134.6300 c3         1 A1A       0.229800
     12 C17         25.2950    40.0780   136.8290 c6         1 A1A       0.176300
     13 C18         26.0530    40.4690   138.0820 c6         1 A1A       0.143100
     14 C20         27.2220    38.4080   137.8130 c6         1 A1A       0.143100
     15 C21         27.4280    38.9530   136.4110 c6         1 A1A       0.176300
     16 C22         23.6130    35.7040   134.5720 c          1 A1A       0.579100
     17 C25         22.4260    34.3370   132.9270 c3         1 A1A       0.112700
     18 C26         23.4480    33.8000   131.9190 c3         1 A1A      -0.087400
     19 C27         23.3220    32.3010   131.6210 c3         1 A1A      -0.098400
     20 C28         24.2020    31.4160   132.5070 c3         1 A1A       0.143700
     21 C29         24.1690    29.9400   132.0750 c3         1 A1A      -0.047100
     22 C30         24.8370    29.7240   130.7440 ca         1 A1A      -0.082300
     23 C31         26.2260    29.7910   130.6350 ca         1 A1A      -0.108500
     24 C32         26.8550    29.6090   129.4120 ca         1 A1A      -0.109000
     25 C33         26.1030    29.3540   128.2720 ca         1 A1A      -0.111000
     26 C34         24.7200    29.2820   128.3670 ca         1 A1A      -0.109000
     27 C35         24.0950    29.4660   129.5940 ca         1 A1A      -0.108500
     28 C40         21.7130    31.2480   136.6390 c3         1 A1A       0.261900
     29 C41         22.0230    31.6460   138.0360 cc         1 A1A      -0.247300
     30 C42         21.3550    32.5280   138.8260 cd         1 A1A       0.283900
     31 C44         22.8790    31.9350   140.2770 cc         1 A1A       0.411300
     32 C46         21.0310    34.4820   132.3130 c3         1 A1A      -0.043100
     33 C47         19.9910    34.8470   133.3360 ca         1 A1A      -0.082300
     34 C48         19.6020    33.9160   134.2980 ca         1 A1A      -0.102000
     35 C49         18.6750    34.2470   135.2750 ca         1 A1A      -0.102500
     36 C50         18.1100    35.5170   135.3000 ca         1 A1A      -0.100000
     37 C51         18.4820    36.4490   134.3410 ca         1 A1A      -0.102500
     38 C52         19.4180    36.1150   133.3690 ca         1 A1A      -0.102000
     39 C53         24.6680    34.5820   138.7440 cc         1 A1A      -0.238000
     40 N05         25.8860    35.9110   140.1750 nd         1 A1A      -0.636000
     41 N08         22.6800    36.6720   138.4500 n          1 A1A      -0.421800
     42 N12         23.8610    37.1470   136.5050 ns         1 A1A      -0.476900
     43 N16         26.2210    39.5330   135.8630 n3         1 A1A      -0.811600
     44 N24         22.8350    35.6110   133.4870 ns         1 A1A      -0.483900
     45 N36         23.9490    31.5700   133.9320 ns         1 A1A      -0.493900
     46 N43         21.8400    32.6820   140.0920 nd         1 A1A      -0.636000
     47 O11         21.6280    36.7820   136.4430 o          1 A1A      -0.637100
     48 O19         26.6790    39.3650   138.7060 os         1 A1A      -0.454000
     49 O23         24.0930    34.7340   135.1450 o          1 A1A      -0.633100
     50 O38         21.8750    30.6230   134.0480 o          1 A1A      -0.556000
     51 O39         22.8580    31.5530   135.8490 os         1 A1A      -0.455100
     52 S45         23.3360    30.9780   138.9250 ss         1 A1A      -0.005400
     53 S54         25.9940    33.5810   139.1680 ss         1 A1A      -0.055400
     54 H1          30.0220    35.0660   140.5200 hc         1 A1A       0.041367
     55 H2          29.1020    34.7120   139.0580 hc         1 A1A       0.041367
     56 H3          28.9480    36.2900   139.8370 hc         1 A1A       0.041367
     57 H4          28.0910    33.6260   141.0610 hc         1 A1A       0.052700
     58 H5          27.0810    35.0120   142.8740 hc         1 A1A       0.041367
     59 H6          28.8260    35.2450   142.7710 hc         1 A1A       0.041367
     60 H7          27.7330    36.4700   142.1230 hc         1 A1A       0.041367
     61 H8          24.3740    37.8220   138.9180 h1         1 A1A       0.075200
     62 H9          23.4870    37.2030   140.2720 h1         1 A1A       0.075200
     63 H10         21.7150    35.5720   139.9330 h1         1 A1A       0.046700
     64 H11         20.9480    37.1260   139.5730 h1         1 A1A       0.046700
     65 H12         20.7890    35.7700   138.4510 h1         1 A1A       0.046700
     66 H13         23.1940    37.8270   134.6620 h1         1 A1A       0.080700
     67 H14         25.3310    37.2530   133.4840 hc         1 A1A       0.053700
     68 H15         26.0720    36.8800   135.0150 hc         1 A1A       0.053700
     69 H16         24.8570    39.6140   134.3220 h1         1 A1A       0.046200
     70 H17         26.4710    39.1470   133.8570 h1         1 A1A       0.046200
     71 H18         24.4880    39.3860   137.1010 h1         1 A1A       0.045450
     72 H19         24.8120    40.9750   136.4250 h1         1 A1A       0.045450
     73 H20         26.7900    41.2460   137.8370 h1         1 A1A       0.045450
     74 H21         25.3620    40.8990   138.8090 h1         1 A1A       0.045450
     75 H22         26.5690    37.5280   137.7680 h1         1 A1A       0.045450
     76 H23         28.1780    38.0660   138.2210 h1         1 A1A       0.045450
     77 H24         27.7730    38.1270   135.7820 h1         1 A1A       0.045450
     78 H25         28.2510    39.6810   136.4230 h1         1 A1A       0.045450
     79 H26         22.3510    33.6430   133.7630 h1         1 A1A       0.077700
     80 H27         24.4540    34.0070   132.2930 hc         1 A1A       0.044700
     81 H28         23.3500    34.3720   130.9920 hc         1 A1A       0.044700
     82 H29         22.2820    31.9690   131.6860 hc         1 A1A       0.060700
     83 H30         23.6240    32.1220   130.5880 hc         1 A1A       0.060700
     84 H31         25.2320    31.7610   132.3880 h1         1 A1A       0.050700
     85 H32         23.1390    29.5830   132.0350 hc         1 A1A       0.068200
     86 H33         24.6850    29.3520   132.8380 hc         1 A1A       0.068200
     87 H34         26.8210    29.9840   131.5210 ha         1 A1A       0.112500
     88 H35         27.9350    29.6630   129.3490 ha         1 A1A       0.112500
     89 H36         26.5920    29.2100   127.3170 ha         1 A1A       0.112000
     90 H37         24.1250    29.0810   127.4850 ha         1 A1A       0.112500
     91 H38         23.0150    29.4080   129.6610 ha         1 A1A       0.112500
     92 H39         20.8380    31.8070   136.3000 h1         1 A1A       0.062700
     93 H40         21.4770    30.1840   136.5790 h1         1 A1A       0.062700
     94 H41         20.4880    33.0900   138.5060 h4         1 A1A       0.046100
     95 H42         23.4460    31.9000   141.1970 h5         1 A1A       0.054100
     96 H43         21.0620    35.2280   131.5130 hc         1 A1A       0.053700
     97 H44         20.7630    33.5350   131.8400 hc         1 A1A       0.053700
     98 H45         20.0270    32.9190   134.2760 ha         1 A1A       0.108000
     99 H46         18.3880    33.5090   136.0150 ha         1 A1A       0.108000
    100 H47         17.3850    35.7760   136.0600 ha         1 A1A       0.110000
    101 H48         18.0440    37.4390   134.3490 ha         1 A1A       0.108000
    102 H49         19.7040    36.8500   132.6260 ha         1 A1A       0.108000
    103 H50         23.8930    34.2440   138.0730 h4         1 A1A       0.183000
    104 H51         24.6990    36.8190   136.9610 hn         1 A1A       0.313500
    105 H53         22.4640    36.4570   133.0820 hn         1 A1A       0.318500
    106 H54         24.5810    32.1620   134.4480 hn         1 A1A       0.343500
    107 C37         22.8180    31.2000   134.5520 c          1 A1A       0.638100
@<TRIPOS>BOND
     1     1     2 1   
     2     1    54 1   
     3     1    55 1   
     4     1    56 1   
     5     2     3 1   
     6     2     4 1   
     7     2    57 1   
     8     3    58 1   
     9     3    59 1   
    10     3    60 1   
    11     4    40 2   
    12     4    53 1   
    13     5     6 1   
    14     5    39 2   
    15     5    40 1   
    16     6    41 1   
    17     6    61 1   
    18     6    62 1   
    19     7    41 1   
    20     7    63 1   
    21     7    64 1   
    22     7    65 1   
    23     8    41 1   
    24     8    42 1   
    25     8    47 2   
    26     9    10 1   
    27     9    16 1   
    28     9    42 1   
    29     9    66 1   
    30    10    11 1   
    31    10    67 1   
    32    10    68 1   
    33    11    43 1   
    34    11    69 1   
    35    11    70 1   
    36    12    13 1   
    37    12    43 1   
    38    12    71 1   
    39    12    72 1   
    40    13    48 1   
    41    13    73 1   
    42    13    74 1   
    43    14    15 1   
    44    14    48 1   
    45    14    75 1   
    46    14    76 1   
    47    15    43 1   
    48    15    77 1   
    49    15    78 1   
    50    16    44 1   
    51    16    49 2   
    52    17    18 1   
    53    17    32 1   
    54    17    44 1   
    55    17    79 1   
    56    18    19 1   
    57    18    80 1   
    58    18    81 1   
    59    19    20 1   
    60    19    82 1   
    61    19    83 1   
    62    20    21 1   
    63    20    45 1   
    64    20    84 1   
    65    21    22 1   
    66    21    85 1   
    67    21    86 1   
    68    22    23 ar  
    69    22    27 ar  
    70    23    24 ar  
    71    23    87 1   
    72    24    25 ar  
    73    24    88 1   
    74    25    26 ar  
    75    25    89 1   
    76    26    27 ar  
    77    26    90 1   
    78    27    91 1   
    79    28    29 1   
    80    28    51 1   
    81    28    92 1   
    82    28    93 1   
    83    29    30 2   
    84    29    52 1   
    85    30    46 1   
    86    30    94 1   
    87    31    46 2   
    88    31    52 1   
    89    31    95 1   
    90    32    33 1   
    91    32    96 1   
    92    32    97 1   
    93    33    34 ar  
    94    33    38 ar  
    95    34    35 ar  
    96    34    98 1   
    97    35    36 ar  
    98    35    99 1   
    99    36    37 ar  
   100    36   100 1   
   101    37    38 ar  
   102    37   101 1   
   103    38   102 1   
   104    39    53 1   
   105    39   103 1   
   106    42   104 1   
   107    44   105 1   
   108    45   106 1   
   109    45   107 1   
   110    50   107 2   
   111    51   107 1   
@<TRIPOS>SUBSTRUCTURE
     1 A1A         1 TEMP              0 ****  ****    0 ROOT
