@<TRIPOS>MOLECULE
A1A
   34    35     1     0     0
SMALL
abcg2


@<TRIPOS>ATOM
      1 N1          17.3790     1.1970    17.7020 n7         1 A1A      -0.866400
      2 C4          16.4350    -1.1540    17.5450 c3         1 A1A      -0.105400
      3 C5          17.1000    -1.6620    18.8220 c6         1 A1A      -0.060700
      4 C6          16.2880    -1.3490    20.0790 c6         1 A1A      -0.073400
      5 C7          16.9440    -1.9130    21.3370 c6         1 A1A      -0.073400
      6 C8          17.1980    -3.4110    21.2170 c6         1 A1A      -0.074400
      7 C10         17.3470    -3.1680    18.7170 c6         1 A1A      -0.073400
      8 N           16.2710     1.3530    15.2490 ns         1 A1A      -0.503900
      9 C           15.5360     0.7000    16.1630 c          1 A1A       0.572000
     10 O           14.3860     0.3410    15.9400 o          1 A1A      -0.574000
     11 C1          17.6170     1.8640    15.4230 c6         1 A1A       0.118000
     12 C2          18.2910     1.1590    16.5780 c6         1 A1A       0.144800
     13 C3          16.2050     0.3700    17.4890 c6         1 A1A       0.093500
     14 C9          18.0120    -3.7290    19.9690 c6         1 A1A      -0.073400
     15 H5          17.8450     0.9290    18.5580 hn         1 A1A       0.428000
     16 H8          15.4660    -1.6490    17.4300 hc         1 A1A       0.056200
     17 H7          17.0380    -1.4690    16.6860 hc         1 A1A       0.056200
     18 H9          18.0840    -1.1850    18.9280 hc         1 A1A       0.035700
     19 H10         16.1550    -0.2690    20.1960 hc         1 A1A       0.041450
     20 H11         15.2830    -1.7730    19.9670 hc         1 A1A       0.041450
     21 H12         17.8960    -1.3990    21.5060 hc         1 A1A       0.038200
     22 H13         16.3200    -1.7010    22.2090 hc         1 A1A       0.038200
     23 H14         17.7090    -3.7800    22.1100 hc         1 A1A       0.039700
     24 H15         16.2390    -3.9400    21.1670 hc         1 A1A       0.039700
     25 H18         17.9610    -3.3800    17.8370 hc         1 A1A       0.041450
     26 H19         16.3880    -3.6750    18.5560 hc         1 A1A       0.041450
     27 H           15.8010     1.5760    14.3830 hn         1 A1A       0.314500
     28 H2          18.1760     1.7040    14.5000 h1         1 A1A       0.044200
     29 H1          17.5880     2.9410    15.6100 h1         1 A1A       0.044200
     30 H4          18.5860     0.1440    16.2760 h1         1 A1A       0.042200
     31 H3          19.2060     1.6930    16.8370 h1         1 A1A       0.042200
     32 H6          15.4730     0.6320    18.2590 h1         1 A1A       0.090700
     33 H16         19.0140    -3.2960    20.0700 hc         1 A1A       0.038200
     34 H17         18.1510    -4.8080    19.8690 hc         1 A1A       0.038200
@<TRIPOS>BOND
     1     1    12 1   
     2     1    13 1   
     3     1    15 1   
     4     2     3 1   
     5     2    13 1   
     6     2    16 1   
     7     2    17 1   
     8     3     4 1   
     9     3     7 1   
    10     3    18 1   
    11     4     5 1   
    12     4    19 1   
    13     4    20 1   
    14     5     6 1   
    15     5    21 1   
    16     5    22 1   
    17     6    14 1   
    18     6    23 1   
    19     6    24 1   
    20     7    14 1   
    21     7    25 1   
    22     7    26 1   
    23     8     9 1   
    24     8    11 1   
    25     8    27 1   
    26     9    10 2   
    27     9    13 1   
    28    11    12 1   
    29    11    28 1   
    30    11    29 1   
    31    12    30 1   
    32    12    31 1   
    33    13    32 1   
    34    14    33 1   
    35    14    34 1   
@<TRIPOS>SUBSTRUCTURE
     1 A1A         1 TEMP              0 ****  ****    0 ROOT
