@<TRIPOS>MOLECULE
A1A
   28    28     1     0     0
SMALL
No Charge or Current Charge


@<TRIPOS>ATOM
      1 N1          28.1910    34.5620     7.6850 ns         1 A1A      -0.489900
      2 C4          28.1620    34.7490     6.3250 c          1 A1A       0.660700
      3 C5          27.5660    33.6130     5.5970 cc         1 A1A      -0.315600
      4 C6          26.5420    31.5770     4.7940 cc         1 A1A       0.429300
      5 C7          27.4180    33.5460     4.2260 cd         1 A1A       0.365300
      6 C8          27.8150    34.5770     3.2040 c3         1 A1A      -0.125400
      7 N           30.9160    36.0810     9.9020 n          1 A1A      -0.412800
      8 C           30.2370    37.2540    10.5010 c3         1 A1A       0.085300
      9 O           30.8310    34.2390     8.5380 o          1 A1A      -0.590100
     10 C1          32.3300    35.8320    10.2700 c3         1 A1A       0.085300
     11 C2          30.2470    35.2110     9.0090 c          1 A1A       0.586100
     12 C3          28.7650    35.5230     8.6570 c3         1 A1A       0.026000
     13 N2          26.8290    32.3750     3.7710 nd         1 A1A      -0.647000
     14 O1          28.5940    35.7650     5.8040 o          1 A1A      -0.586100
     15 S           26.9560    32.1730     6.3770 ss         1 A1A      -0.021400
     16 H8          27.8320    33.6780     8.0240 hn         1 A1A       0.320500
     17 H9          26.0770    30.6040     4.7020 h5         1 A1A       0.054100
     18 H10         27.5750    34.2490     2.1860 hc         1 A1A       0.061033
     19 H11         27.2910    35.5230     3.3790 hc         1 A1A       0.061033
     20 H12         28.8930    34.7700     3.2430 hc         1 A1A       0.061033
     21 H2          29.9310    37.9500     9.7100 h1         1 A1A       0.041700
     22 H           29.3520    36.9270    11.0610 h1         1 A1A       0.041700
     23 H1          30.9080    37.7820    11.1910 h1         1 A1A       0.041700
     24 H5          32.9470    35.7950     9.3630 h1         1 A1A       0.041700
     25 H4          32.7120    36.6270    10.9230 h1         1 A1A       0.041700
     26 H3          32.4100    34.8730    10.7980 h1         1 A1A       0.041700
     27 H7          28.1790    35.4860     9.5840 h1         1 A1A       0.071700
     28 H6          28.7090    36.5420     8.2550 h1         1 A1A       0.071700
@<TRIPOS>BOND
     1     1     2 1   
     2     1    12 1   
     3     1    16 1   
     4     2     3 1   
     5     2    14 2   
     6     3     5 2   
     7     3    15 1   
     8     4    13 2   
     9     4    15 1   
    10     4    17 1   
    11     5     6 1   
    12     5    13 1   
    13     6    18 1   
    14     6    19 1   
    15     6    20 1   
    16     7     8 1   
    17     7    10 1   
    18     7    11 1   
    19     8    21 1   
    20     8    22 1   
    21     8    23 1   
    22     9    11 2   
    23    10    24 1   
    24    10    25 1   
    25    10    26 1   
    26    11    12 1   
    27    12    27 1   
    28    12    28 1   
@<TRIPOS>SUBSTRUCTURE
     1 A1A         1 TEMP              0 ****  ****    0 ROOT
