@<TRIPOS>MOLECULE
A1A
   89    92     1     0     0
SMALL
abcg2


@<TRIPOS>ATOM
      1 N1          10.1770     2.1710   -13.4710 nb         1 A1A      -0.702000
      2 N3          16.9400     3.3080    -8.8830 nc         1 A1A      -0.604400
      3 C4          12.4670     1.3950   -12.0810 ca         1 A1A      -0.090300
      4 C5          18.9500     2.3680    -7.9630 cd         1 A1A      -0.394200
      5 C6          19.3920     2.1750    -9.2130 cc         1 A1A      -0.041400
      6 O7          14.4420    -4.6120   -13.0080 o          1 A1A      -0.726100
      7 C8          16.3830    -5.9570   -13.3560 c3         1 A1A      -0.170100
      8 C2          15.8630    -2.6850   -11.5450 c6         1 A1A       0.051700
      9 C3          16.2460    -1.4380   -12.3480 c6         1 A1A       0.093700
     10 N4          15.7650    -1.5620   -13.7030 ns         1 A1A      -0.486900
     11 C9          16.4300    -1.0870   -14.7770 c          1 A1A       0.594100
     12 O           17.4630    -0.4410   -14.6830 o          1 A1A      -0.604100
     13 C11         15.7320    -0.1750   -11.6530 c6         1 A1A       0.129300
     14 O4A         14.3280    -0.1240   -11.8470 os         1 A1A      -0.508000
     15 C4A         13.7300     1.0570   -11.3360 c3         1 A1A       0.168900
     16 C14         12.2970     1.0920   -13.4310 ca         1 A1A       0.119100
     17 O3          13.2110     0.4300   -14.1620 oh         1 A1A      -0.578100
     18 C13         11.1270     1.4960   -14.0950 ca         1 A1A       0.261300
     19 C2A         10.9380     1.1750   -15.5460 c3         1 A1A      -0.109400
     20 C5B         11.4450     2.1090   -11.4420 ca         1 A1A      -0.064300
     21 C5A         11.5200     2.4850    -9.9890 c3         1 A1A       0.267900
     22 O4P         12.6570     3.2880    -9.7550 os         1 A1A      -0.581400
     23 P           13.3070     3.2370    -8.2180 p5         1 A1A       1.385800
     24 O3P         12.2920     3.8090    -7.2720 o          1 A1A      -0.852000
     25 O2P         14.4890     4.3010    -8.4480 oh         1 A1A      -0.835400
     26 O1P         13.8390     1.8480    -7.9750 o          1 A1A      -0.852000
     27 C6B         10.3360     2.4690   -12.1870 ca         1 A1A       0.263900
     28 C12         16.1370    -0.1860   -10.1850 c6         1 A1A       0.124600
     29 O5          15.7780    -1.3870    -9.5260 os         1 A1A      -0.446000
     30 C1          16.3400    -2.5270   -10.0980 c6         1 A1A       0.454300
     31 O3B         17.7320    -2.4440   -10.1020 os         1 A1A      -0.638400
     32 PB          18.6990    -3.3330    -9.0980 p5         1 A1A       1.492800
     33 O1B         18.1680    -4.7280    -9.0160 o          1 A1A      -0.855000
     34 O2B         19.0000    -2.5460    -7.8650 o          1 A1A      -0.855000
     35 O3A         20.0580    -3.2770   -10.0200 os         1 A1A      -0.723800
     36 PA          20.2930    -3.4310   -11.6360 p5         1 A1A       1.516800
     37 O1A         21.7200    -3.8330   -11.8090 o          1 A1A      -0.870500
     38 O2A         19.1780    -4.2120   -12.2710 o          1 A1A      -0.870500
     39 O5C         20.0750    -1.8910   -12.1540 os         1 A1A      -0.587400
     40 C5C         20.9630    -0.8760   -11.7460 c3         1 A1A       0.239600
     41 C4C         20.4980     0.4430   -12.3100 c5         1 A1A       0.171300
     42 C3C         21.4390     1.5920   -11.9600 c5         1 A1A       0.071300
     43 O3C         22.4880     1.6650   -12.8870 oh         1 A1A      -0.720000
     44 C2C         20.5000     2.8080   -12.0060 c5         1 A1A       0.088300
     45 O2C         20.4080     3.3040   -13.3160 oh         1 A1A      -0.712000
     46 O4C         19.2590     0.8070   -11.7340 os         1 A1A      -0.413000
     47 C1C         19.1320     2.2110   -11.6300 c5         1 A1A       0.317700
     48 N1B         18.6590     2.5380   -10.3050 n          1 A1A      -0.349000
     49 C4B         17.6380     2.9660    -7.7660 cd         1 A1A       0.625500
     50 O4          17.1780     3.1570    -6.6380 o          1 A1A      -0.693300
     51 C2B         17.3820     3.1100   -10.1330 c          1 A1A       0.718400
     52 O2          16.7240     3.4080   -11.1300 o          1 A1A      -0.664000
     53 H1          15.3970     3.9010    -8.6370 ho         1 A1A       0.529000
     54 H2          19.5540     2.0730    -7.1170 ha         1 A1A       0.170000
     55 H3          20.3550     1.7200    -9.3980 h4         1 A1A       0.153000
     56 H7          16.2200    -6.0340   -14.4310 hc         1 A1A       0.044700
     57 H8          17.4530    -5.9320   -13.1640 hc         1 A1A       0.044700
     58 H9          15.9700    -6.8590   -12.9030 hc         1 A1A       0.044700
     59 H11         14.7750    -2.7810   -11.5200 h1         1 A1A       0.069700
     60 H12         17.3340    -1.3620   -12.3840 h1         1 A1A       0.136700
     61 H13         14.9480    -2.1330   -13.8600 hn         1 A1A       0.313500
     62 H14         16.1930     0.7060   -12.1190 h1         1 A1A       0.066700
     63 H15         13.5290     0.9350   -10.2710 h1         1 A1A       0.106200
     64 H16         14.4270     1.9000   -11.4320 h1         1 A1A       0.106200
     65 H17         13.8670     0.0430   -13.5510 ho         1 A1A       0.520000
     66 H18          9.9820     1.5620   -15.8890 hc         1 A1A       0.024033
     67 H19         11.7250     1.6120   -16.1630 hc         1 A1A       0.024033
     68 H20         10.9570     0.0990   -15.7260 hc         1 A1A       0.024033
     69 H21         10.6030     3.0170    -9.7120 h1         1 A1A       0.016700
     70 H22         11.5450     1.5690    -9.3850 h1         1 A1A       0.016700
     71 H25          9.5330     3.0290   -11.7180 h4         1 A1A      -0.006900
     72 H26         17.2160    -0.0130   -10.1320 h1         1 A1A       0.099700
     73 H27         15.6570     0.6230    -9.6320 h1         1 A1A       0.099700
     74 H28         15.9870    -3.3750    -9.5030 h2         1 A1A       0.065700
     75 H31         21.9790    -1.0640   -12.1100 h1         1 A1A       0.021200
     76 H32         21.0110    -0.7980   -10.6520 h1         1 A1A       0.021200
     77 H33         20.4080     0.3650   -13.4030 h1         1 A1A       0.066700
     78 H34         21.8240     1.4580   -10.9420 h1         1 A1A       0.050700
     79 H35         23.2450     2.0950   -12.4740 ho         1 A1A       0.479000
     80 H36         20.8050     3.5950   -11.3040 h1         1 A1A       0.041700
     81 H37         21.2690     3.1680   -13.7320 ho         1 A1A       0.491000
     82 H38         18.3770     2.5820   -12.3210 h2         1 A1A       0.120700
     83 C10         15.7830    -1.3800   -16.1080 c3         1 A1A      -0.178100
     84 N2          16.4010    -3.8850   -12.1270 ns         1 A1A      -0.464900
     85 H10         17.4220    -4.0100   -12.1150 hn         1 A1A       0.414500
     86 C7          15.6470    -4.7530   -12.8200 c          1 A1A       0.591100
     87 H4          16.5440    -1.6770   -16.8270 hc         1 A1A       0.038367
     88 H5          15.0240    -2.1580   -16.0570 hc         1 A1A       0.038367
     89 H6          15.3120    -0.4710   -16.4850 hc         1 A1A       0.038367
@<TRIPOS>BOND
     1     1    18 ar  
     2     1    27 ar  
     3     2    49 2   
     4     2    51 1   
     5     3    15 1   
     6     3    16 ar  
     7     3    20 ar  
     8     4     5 2   
     9     4    49 1   
    10     4    54 1   
    11     5    48 1   
    12     5    55 1   
    13     6    86 2   
    14     7    56 1   
    15     7    57 1   
    16     7    58 1   
    17     7    86 1   
    18     8     9 1   
    19     8    30 1   
    20     8    59 1   
    21     8    84 1   
    22     9    10 1   
    23     9    13 1   
    24     9    60 1   
    25    10    11 1   
    26    10    61 1   
    27    11    12 2   
    28    11    83 1   
    29    13    14 1   
    30    13    28 1   
    31    13    62 1   
    32    14    15 1   
    33    15    63 1   
    34    15    64 1   
    35    16    17 1   
    36    16    18 ar  
    37    17    65 1   
    38    18    19 1   
    39    19    66 1   
    40    19    67 1   
    41    19    68 1   
    42    20    21 1   
    43    20    27 ar  
    44    21    22 1   
    45    21    69 1   
    46    21    70 1   
    47    22    23 1   
    48    23    24 1   
    49    23    25 1   
    50    23    26 1   
    51    25    53 1   
    52    27    71 1   
    53    28    29 1   
    54    28    72 1   
    55    28    73 1   
    56    29    30 1   
    57    30    31 1   
    58    30    74 1   
    59    31    32 1   
    60    32    33 1   
    61    32    34 1   
    62    32    35 1   
    63    35    36 1   
    64    36    37 1   
    65    36    38 1   
    66    36    39 1   
    67    39    40 1   
    68    40    41 1   
    69    40    75 1   
    70    40    76 1   
    71    41    42 1   
    72    41    46 1   
    73    41    77 1   
    74    42    43 1   
    75    42    44 1   
    76    42    78 1   
    77    43    79 1   
    78    44    45 1   
    79    44    47 1   
    80    44    80 1   
    81    45    81 1   
    82    46    47 1   
    83    47    48 1   
    84    47    82 1   
    85    48    51 1   
    86    49    50 1   
    87    51    52 2   
    88    83    87 1   
    89    83    88 1   
    90    83    89 1   
    91    84    85 1   
    92    84    86 1   
@<TRIPOS>SUBSTRUCTURE
     1 A1A         1 TEMP              0 ****  ****    0 ROOT
