@<TRIPOS>MOLECULE
A1A
   28    28     1     0     0
SMALL
abcg2


@<TRIPOS>ATOM
      1 N1          28.0420    34.6740     7.7580 ns         1 A1A      -0.489900
      2 C4          28.2850    34.7110     6.4340 c          1 A1A       0.660700
      3 C5          27.7140    33.6130     5.6270 cc         1 A1A      -0.315600
      4 C6          26.7850    31.5780     4.7270 cc         1 A1A       0.429300
      5 C7          27.5280    33.5990     4.2660 cd         1 A1A       0.365300
      6 C8          27.8400    34.6950     3.3020 c3         1 A1A      -0.125400
      7 N           30.7930    35.9960     9.8150 n          1 A1A      -0.412800
      8 C           30.2520    37.1620    10.4780 c3         1 A1A       0.085300
      9 O           30.6130    34.2340     8.4130 o          1 A1A      -0.590100
     10 C1          32.1650    35.7010    10.1680 c3         1 A1A       0.085300
     11 C2          30.1190    35.2110     8.9520 c          1 A1A       0.586100
     12 C3          28.6630    35.5950     8.6620 c3         1 A1A       0.026000
     13 N2          26.9960    32.4390     3.7830 nd         1 A1A      -0.647000
     14 O1          28.9180    35.6140     5.9070 o          1 A1A      -0.586100
     15 S           27.2120    32.1020     6.2920 ss         1 A1A      -0.021400
     16 H8          27.5200    33.9160     8.1660 hn         1 A1A       0.320500
     17 H9          26.3750    30.5910     4.5640 h5         1 A1A       0.054100
     18 H10         27.3730    34.4790     2.3440 hc         1 A1A       0.061033
     19 H11         27.4880    35.6620     3.6550 hc         1 A1A       0.061033
     20 H12         28.9150    34.7820     3.1420 hc         1 A1A       0.061033
     21 H2          29.2320    37.3750    10.1790 h1         1 A1A       0.041700
     22 H           30.2620    37.0230    11.5610 h1         1 A1A       0.041700
     23 H1          30.8570    38.0410    10.2460 h1         1 A1A       0.041700
     24 H5          32.5100    34.8110     9.6530 h1         1 A1A       0.041700
     25 H4          32.8130    36.5370     9.8990 h1         1 A1A       0.041700
     26 H3          32.2510    35.5390    11.2440 h1         1 A1A       0.041700
     27 H7          28.0830    35.5970     9.5860 h1         1 A1A       0.071700
     28 H6          28.6110    36.6060     8.2560 h1         1 A1A       0.071700
@<TRIPOS>BOND
     1     1     2 1   
     2     1    12 1   
     3     1    16 1   
     4     2     3 1   
     5     2    14 2   
     6     3     5 2   
     7     3    15 1   
     8     4    13 2   
     9     4    15 1   
    10     4    17 1   
    11     5     6 1   
    12     5    13 1   
    13     6    18 1   
    14     6    19 1   
    15     6    20 1   
    16     7     8 1   
    17     7    10 1   
    18     7    11 1   
    19     8    21 1   
    20     8    22 1   
    21     8    23 1   
    22     9    11 2   
    23    10    24 1   
    24    10    25 1   
    25    10    26 1   
    26    11    12 1   
    27    12    27 1   
    28    12    28 1   
@<TRIPOS>SUBSTRUCTURE
     1 A1A         1 TEMP              0 ****  ****    0 ROOT
