@<TRIPOS>MOLECULE
A1A
   26    27     1     0     0
SMALL
abcg2


@<TRIPOS>ATOM
      1 N1           4.4260    29.8670   -20.2130 ns         1 A1A      -0.507900
      2 C4           3.4220    30.6460   -19.7740 c          1 A1A       0.567000
      3 C5           5.6260    29.4920   -19.4930 c6         1 A1A       0.094000
      4 C6           8.0930    33.2230   -20.0330 cc         1 A1A       0.209500
      5 C7           9.3140    33.5580   -20.5350 cd         1 A1A      -0.202000
      6 C8           7.6470    35.2990   -20.5710 cd         1 A1A       0.411300
      7 N            6.5100    31.7550   -19.0370 ns         1 A1A      -0.490900
      8 C            7.7670    31.8810   -19.4860 c          1 A1A       0.534600
      9 O            8.6030    30.9890   -19.4580 o          1 A1A      -0.610100
     10 C1           6.0020    30.5320   -18.4480 c6         1 A1A       0.107700
     11 C2           4.7760    30.8210   -17.5960 c6         1 A1A      -0.088400
     12 C3           3.6140    31.3340   -18.4410 c6         1 A1A      -0.167400
     13 N2           7.1590    34.2190   -20.0600 nc         1 A1A      -0.638000
     14 O1           2.4090    30.8330   -20.4360 o          1 A1A      -0.572000
     15 S            9.2920    35.1790   -21.0600 ss         1 A1A       0.000600
     16 H6           4.2750    29.4210   -21.1060 hn         1 A1A       0.316500
     17 H8           5.4890    28.5310   -18.9870 h1         1 A1A       0.054200
     18 H7           6.4320    29.3600   -20.2150 h1         1 A1A       0.054200
     19 H9          10.1950    32.9410   -20.6160 h4         1 A1A       0.182000
     20 H10          7.0930    36.2180   -20.6930 h5         1 A1A       0.058100
     21 H            5.9130    32.5660   -19.1060 hn         1 A1A       0.344500
     22 H1           6.7840    30.0990   -17.8210 h1         1 A1A       0.078700
     23 H3           4.4910    29.8910   -17.1010 hc         1 A1A       0.058200
     24 H2           5.0120    31.5370   -16.8080 hc         1 A1A       0.058200
     25 H5           2.6780    31.2530   -17.8870 hc         1 A1A       0.073700
     26 H4           3.7250    32.4020   -18.6560 hc         1 A1A       0.073700
@<TRIPOS>BOND
     1     1     2 1   
     2     1     3 1   
     3     1    16 1   
     4     2    12 1   
     5     2    14 2   
     6     3    10 1   
     7     3    17 1   
     8     3    18 1   
     9     4     5 2   
    10     4     8 1   
    11     4    13 1   
    12     5    15 1   
    13     5    19 1   
    14     6    13 2   
    15     6    15 1   
    16     6    20 1   
    17     7     8 1   
    18     7    10 1   
    19     7    21 1   
    20     8     9 2   
    21    10    11 1   
    22    10    22 1   
    23    11    12 1   
    24    11    23 1   
    25    11    24 1   
    26    12    25 1   
    27    12    26 1   
@<TRIPOS>SUBSTRUCTURE
     1 A1A         1 TEMP              0 ****  ****    0 ROOT
