@<TRIPOS>MOLECULE
A1A
   26    27     1     0     0
SMALL
abcg2


@<TRIPOS>ATOM
      1 N1           4.1420    29.8480   -18.4080 n          1 A1A      -0.274000
      2 C4           3.3490    30.7600   -17.5940 c3         1 A1A       0.056700
      3 C5           5.2320    29.2650   -17.8400 cc         1 A1A      -0.034400
      4 C6           6.0260    28.4090   -18.5250 cd         1 A1A      -0.295000
      5 C7           5.6920    28.1300   -19.8720 cd         1 A1A      -0.088000
      6 C8           4.6120    28.7120   -20.4500 cc         1 A1A      -0.315200
      7 N            4.1720    32.8870   -18.6590 nc         1 A1A      -0.692000
      8 C            4.5260    36.4560   -18.3190 c3         1 A1A      -0.090100
      9 O            2.7860    30.1940   -20.2100 o          1 A1A      -0.544000
     10 C2           4.7040    33.9550   -18.1630 cd         1 A1A       0.486300
     11 C3           3.9590    32.1180   -17.5550 cc         1 A1A       0.528300
     12 C9           3.7660    29.6320   -19.7340 c          1 A1A       0.559200
     13 N2           4.3360    32.6720   -16.4470 nd         1 A1A      -0.378300
     14 O1           4.8240    33.8870   -16.8410 os         1 A1A      -0.088700
     15 H6           3.2710    30.3640   -16.5830 h1         1 A1A       0.093200
     16 H5           2.3450    30.8180   -18.0090 h1         1 A1A       0.093200
     17 H7           5.4190    29.5240   -16.8060 h4         1 A1A       0.202000
     18 H8           6.8800    27.9590   -18.0430 ha         1 A1A       0.201000
     19 H9           6.3050    27.4450   -20.4450 ha         1 A1A       0.186000
     20 H10          4.3470    28.5080   -21.4790 ha         1 A1A       0.208000
     21 H2           4.8720    37.3100   -18.9000 hc         1 A1A       0.047700
     22 H            3.4400    36.4200   -18.3890 hc         1 A1A       0.047700
     23 H1           4.7980    36.6300   -17.2790 hc         1 A1A       0.047700
     24 H3           4.9260    35.0510   -19.9200 hc         1 A1A       0.078200
     25 H4           6.2490    35.2390   -18.7850 hc         1 A1A       0.078200
     26 C1           5.1610    35.1780   -18.8640 c3         1 A1A      -0.114700
@<TRIPOS>BOND
     1     1     2 1   
     2     1     3 1   
     3     1    12 1   
     4     2    11 1   
     5     2    15 1   
     6     2    16 1   
     7     3     4 2   
     8     3    17 1   
     9     4     5 1   
    10     4    18 1   
    11     5     6 2   
    12     5    19 1   
    13     6    12 1   
    14     6    20 1   
    15     7    10 2   
    16     7    11 1   
    17     8    21 1   
    18     8    22 1   
    19     8    23 1   
    20     8    26 1   
    21     9    12 2   
    22    10    14 1   
    23    10    26 1   
    24    11    13 2   
    25    13    14 1   
    26    24    26 1   
    27    25    26 1   
@<TRIPOS>SUBSTRUCTURE
     1 A1A         1 TEMP              0 ****  ****    0 ROOT
