@<TRIPOS>MOLECULE
A1A
   26    27     1     0     0
SMALL
No Charge or Current Charge


@<TRIPOS>ATOM
      1 N1           4.3540    29.7580   -20.2020 ns         1 A1A      -0.507900
      2 C4           3.3970    30.6580   -19.7900 c          1 A1A       0.567000
      3 C5           5.6250    29.4530   -19.5150 c6         1 A1A       0.094000
      4 C6           8.0860    33.2590   -20.0220 cc         1 A1A       0.209500
      5 C7           9.3150    33.6020   -20.5400 cd         1 A1A      -0.202000
      6 C8           7.6390    35.3660   -20.5930 cd         1 A1A       0.411300
      7 N            6.5580    31.7080   -18.9970 ns         1 A1A      -0.490900
      8 C            7.8410    31.8790   -19.4740 c          1 A1A       0.534600
      9 O            8.6700    30.9750   -19.4370 o          1 A1A      -0.610100
     10 C1           6.0080    30.4760   -18.4100 c6         1 A1A       0.107700
     11 C2           4.7530    30.7970   -17.5680 c6         1 A1A      -0.088400
     12 C3           3.6090    31.3750   -18.4460 c6         1 A1A      -0.167400
     13 N2           7.1310    34.2620   -20.0520 nc         1 A1A      -0.638000
     14 O1           2.3920    30.8360   -20.4590 o          1 A1A      -0.572000
     15 S            9.3210    35.2620   -21.1060 ss         1 A1A       0.000600
     16 H6           4.1630    29.2920   -21.0820 hn         1 A1A       0.316500
     17 H8           5.5210    28.4600   -19.0540 h1         1 A1A       0.054200
     18 H7           6.4300    29.3820   -20.2600 h1         1 A1A       0.054200
     19 H9          10.2000    32.9830   -20.6190 h4         1 A1A       0.182000
     20 H10          7.0960    36.2930   -20.7310 h5         1 A1A       0.058100
     21 H            5.9620    32.5250   -19.0750 hn         1 A1A       0.344500
     22 H1           6.7780    30.0310   -17.7620 h1         1 A1A       0.078700
     23 H3           4.4050    29.8770   -17.0770 hc         1 A1A       0.058200
     24 H2           5.0040    31.5000   -16.7610 hc         1 A1A       0.058200
     25 H5           2.6520    31.4180   -17.9100 hc         1 A1A       0.073700
     26 H4           3.8380    32.4190   -18.6960 hc         1 A1A       0.073700
@<TRIPOS>BOND
     1     1     2 1   
     2     1     3 1   
     3     1    16 1   
     4     2    12 1   
     5     2    14 2   
     6     3    10 1   
     7     3    17 1   
     8     3    18 1   
     9     4     5 2   
    10     4     8 1   
    11     4    13 1   
    12     5    15 1   
    13     5    19 1   
    14     6    13 2   
    15     6    15 1   
    16     6    20 1   
    17     7     8 1   
    18     7    10 1   
    19     7    21 1   
    20     8     9 2   
    21    10    11 1   
    22    10    22 1   
    23    11    12 1   
    24    11    23 1   
    25    11    24 1   
    26    12    25 1   
    27    12    26 1   
@<TRIPOS>SUBSTRUCTURE
     1 A1A         1 TEMP              0 ****  ****    0 ROOT
