@<TRIPOS>MOLECULE
A1A
   89    92     1     0     0
SMALL
No Charge or Current Charge


@<TRIPOS>ATOM
      1 N1           9.9060     1.6140   -12.6480 nb         1 A1A      -0.702000
      2 N3          16.6710     4.0680   -10.7120 nc         1 A1A      -0.604400
      3 C4          12.5870     1.3600   -11.7020 ca         1 A1A      -0.090300
      4 C5          17.8490     3.1590    -8.8480 cd         1 A1A      -0.394200
      5 C6          18.7000     2.4890    -9.6920 cc         1 A1A      -0.041400
      6 O7          14.6350    -3.9800   -13.8020 o          1 A1A      -0.726100
      7 C8          16.3140    -5.7000   -14.0100 c3         1 A1A      -0.170100
      8 C2          16.0300    -2.6370   -11.6530 c6         1 A1A       0.051700
      9 C3          16.5650    -1.3630   -12.3810 c6         1 A1A       0.093700
     10 N4          16.1060    -1.3520   -13.7860 ns         1 A1A      -0.486900
     11 C9          16.6470    -0.6090   -14.8050 c          1 A1A       0.594100
     12 O           17.5620     0.1810   -14.6320 o          1 A1A      -0.604100
     13 C11         16.0970    -0.0860   -11.6210 c6         1 A1A       0.129300
     14 O4A         14.6620     0.0850   -11.7740 os         1 A1A      -0.508000
     15 C4A         14.0470     1.2730   -11.2180 c3         1 A1A       0.168900
     16 C14         12.2340     0.9940   -13.0240 ca         1 A1A       0.119100
     17 O3          13.1910     0.4800   -13.8570 oh         1 A1A      -0.578100
     18 C13         10.8860     1.1390   -13.4540 ca         1 A1A       0.261300
     19 C2A         10.4580     0.7540   -14.8660 c3         1 A1A      -0.109400
     20 C5B         11.5500     1.8540   -10.8650 ca         1 A1A      -0.064300
     21 C5A         11.7810     2.2780    -9.4190 c3         1 A1A       0.267900
     22 O4P         12.5330     3.4900    -9.4030 os         1 A1A      -0.581400
     23 P           12.7580     4.1940    -7.9830 p5         1 A1A       1.385800
     24 O3P         11.4910     4.6630    -7.3580 o          1 A1A      -0.852000
     25 O2P         13.5910     5.4240    -8.4970 oh         1 A1A      -0.835400
     26 O1P         13.6070     3.3770    -7.0840 o          1 A1A      -0.852000
     27 C6B         10.2450     1.9580   -11.3860 ca         1 A1A       0.263900
     28 C12         16.5310    -0.1840   -10.1300 c6         1 A1A       0.124600
     29 O5          16.0190    -1.3950    -9.5250 os         1 A1A      -0.446000
     30 C1          16.4750    -2.6140   -10.1470 c6         1 A1A       0.454300
     31 O3B         17.8870    -2.6850    -9.9770 os         1 A1A      -0.638400
     32 PB          18.5050    -4.0970    -9.5470 p5         1 A1A       1.492800
     33 O1B         17.7460    -5.2580   -10.0880 o          1 A1A      -0.855000
     34 O2B         18.5770    -4.1770    -8.0590 o          1 A1A      -0.855000
     35 O3A         19.9590    -3.9720   -10.1370 os         1 A1A      -0.723800
     36 PA          20.1230    -3.8370   -11.6970 p5         1 A1A       1.516800
     37 O1A         21.4790    -4.3060   -12.1140 o          1 A1A      -0.870500
     38 O2A         19.0680    -4.5290   -12.4890 o          1 A1A      -0.870500
     39 O5C         19.9930    -2.2460   -11.8630 os         1 A1A      -0.587400
     40 C5C         21.0200    -1.3830   -11.3660 c3         1 A1A       0.239600
     41 C4C         20.7950     0.0410   -11.9440 c5         1 A1A       0.171300
     42 C3C         21.6270     1.1700   -11.2640 c5         1 A1A       0.071300
     43 O3C         23.0240     1.1630   -11.6180 oh         1 A1A      -0.720000
     44 C2C         20.9010     2.4370   -11.8240 c5         1 A1A       0.088300
     45 O2C         21.5300     2.7900   -13.0620 oh         1 A1A      -0.712000
     46 O4C         19.4440     0.4930   -11.7250 os         1 A1A      -0.413000
     47 C1C         19.4240     1.9030   -12.0140 c5         1 A1A       0.317700
     48 N1B         18.5140     2.6010   -11.0660 n          1 A1A      -0.349000
     49 C4B         16.8140     3.9600    -9.4170 cd         1 A1A       0.625500
     50 O4          16.0910     4.5260    -8.6160 o          1 A1A      -0.693300
     51 C2B         17.4980     3.4220   -11.5890 c          1 A1A       0.718400
     52 O2          17.3330     3.5710   -12.7890 o          1 A1A      -0.664000
     53 H1          14.4520     4.9370    -8.4160 ho         1 A1A       0.529000
     54 H2          17.9530     3.0850    -7.7720 ha         1 A1A       0.170000
     55 H3          19.5160     1.8390    -9.3970 h4         1 A1A       0.153000
     56 H7          15.6620    -6.1810   -14.7480 hc         1 A1A       0.044700
     57 H8          17.2780    -5.4340   -14.4550 hc         1 A1A       0.044700
     58 H9          16.6070    -6.3880   -13.2080 hc         1 A1A       0.044700
     59 H11         14.9310    -2.5840   -11.6490 h1         1 A1A       0.069700
     60 H12         17.6650    -1.3890   -12.3740 h1         1 A1A       0.136700
     61 H13         15.3810    -2.0160   -14.0430 hn         1 A1A       0.313500
     62 H14         16.5930     0.7830   -12.0730 h1         1 A1A       0.066700
     63 H15         14.0890     1.2470   -10.1230 h1         1 A1A       0.106200
     64 H16         14.5760     2.1790   -11.5450 h1         1 A1A       0.106200
     65 H17         13.9400     0.2260   -13.2520 ho         1 A1A       0.520000
     66 H18          9.3920     0.9470   -15.0440 hc         1 A1A       0.024033
     67 H19         11.0250     1.3210   -15.6140 hc         1 A1A       0.024033
     68 H20         10.6350    -0.3120   -15.0490 hc         1 A1A       0.024033
     69 H21         10.8110     2.4200    -8.9220 h1         1 A1A       0.016700
     70 H22         12.3100     1.4810    -8.8810 h1         1 A1A       0.016700
     71 H25          9.4300     2.3340   -10.7680 h4         1 A1A      -0.006900
     72 H26         17.6280    -0.1810   -10.0610 h1         1 A1A       0.099700
     73 H27         16.1760     0.6870    -9.5630 h1         1 A1A       0.099700
     74 H28         15.9890    -3.4550    -9.6260 h2         1 A1A       0.065700
     75 H31         22.0170    -1.7330   -11.6610 h1         1 A1A       0.021200
     76 H32         20.9800    -1.3370   -10.2700 h1         1 A1A       0.021200
     77 H33         20.9810     0.0080   -13.0260 h1         1 A1A       0.066700
     78 H34         21.5110     1.1100   -10.1730 h1         1 A1A       0.050700
     79 H35         23.5370     1.3950   -10.8080 ho         1 A1A       0.479000
     80 H36         20.9550     3.2760   -11.1160 h1         1 A1A       0.041700
     81 H37         22.4000     2.3190   -12.9940 ho         1 A1A       0.491000
     82 H38         19.0820     2.0730   -13.0430 h2         1 A1A       0.120700
     83 C10         16.0150    -0.8520   -16.1720 c3         1 A1A      -0.178100
     84 N2          16.4050    -3.8730   -12.3830 ns         1 A1A      -0.464900
     85 H10         17.3240    -4.2950   -12.2030 hn         1 A1A       0.414500
     86 C7          15.6930    -4.4470   -13.4030 c          1 A1A       0.591100
     87 H4          16.4700    -0.2470   -16.9640 hc         1 A1A       0.038367
     88 H5          16.0640    -1.9230   -16.4030 hc         1 A1A       0.038367
     89 H6          14.9350    -0.6820   -16.1030 hc         1 A1A       0.038367
@<TRIPOS>BOND
     1     1    18 ar  
     2     1    27 ar  
     3     2    49 2   
     4     2    51 1   
     5     3    15 1   
     6     3    16 ar  
     7     3    20 ar  
     8     4     5 2   
     9     4    49 1   
    10     4    54 1   
    11     5    48 1   
    12     5    55 1   
    13     6    86 2   
    14     7    56 1   
    15     7    57 1   
    16     7    58 1   
    17     7    86 1   
    18     8     9 1   
    19     8    30 1   
    20     8    59 1   
    21     8    84 1   
    22     9    10 1   
    23     9    13 1   
    24     9    60 1   
    25    10    11 1   
    26    10    61 1   
    27    11    12 2   
    28    11    83 1   
    29    13    14 1   
    30    13    28 1   
    31    13    62 1   
    32    14    15 1   
    33    15    63 1   
    34    15    64 1   
    35    16    17 1   
    36    16    18 ar  
    37    17    65 1   
    38    18    19 1   
    39    19    66 1   
    40    19    67 1   
    41    19    68 1   
    42    20    21 1   
    43    20    27 ar  
    44    21    22 1   
    45    21    69 1   
    46    21    70 1   
    47    22    23 1   
    48    23    24 1   
    49    23    25 1   
    50    23    26 1   
    51    25    53 1   
    52    27    71 1   
    53    28    29 1   
    54    28    72 1   
    55    28    73 1   
    56    29    30 1   
    57    30    31 1   
    58    30    74 1   
    59    31    32 1   
    60    32    33 1   
    61    32    34 1   
    62    32    35 1   
    63    35    36 1   
    64    36    37 1   
    65    36    38 1   
    66    36    39 1   
    67    39    40 1   
    68    40    41 1   
    69    40    75 1   
    70    40    76 1   
    71    41    42 1   
    72    41    46 1   
    73    41    77 1   
    74    42    43 1   
    75    42    44 1   
    76    42    78 1   
    77    43    79 1   
    78    44    45 1   
    79    44    47 1   
    80    44    80 1   
    81    45    81 1   
    82    46    47 1   
    83    47    48 1   
    84    47    82 1   
    85    48    51 1   
    86    49    50 1   
    87    51    52 2   
    88    83    87 1   
    89    83    88 1   
    90    83    89 1   
    91    84    85 1   
    92    84    86 1   
@<TRIPOS>SUBSTRUCTURE
     1 A1A         1 TEMP              0 ****  ****    0 ROOT
