@<TRIPOS>MOLECULE
A1A
   54    57     1     0     0
SMALL
No Charge or Current Charge


@<TRIPOS>ATOM
      1 O1           0.9530   -11.7680    34.2770 o          1 A1A      -0.583100
      2 C2          -0.0950   -11.6310    33.6640 c          1 A1A       0.647700
      3 N3          -0.1920   -10.8000    32.5720 ns         1 A1A      -0.511900
      4 C4           0.9070   -10.0240    32.0000 c3         1 A1A       0.179000
      5 C5           0.4070    -8.6300    31.6240 ca         1 A1A      -0.107300
      6 C6           0.8760    -7.5020    32.3300 ca         1 A1A      -0.060000
      7 C7           0.4180    -6.2140    31.9970 ca         1 A1A      -0.143000
      8 C8          -0.5120    -6.0460    30.9600 ca         1 A1A       0.183000
      9 F9          -0.9450    -4.8020    30.6500 f          1 A1A      -0.161000
     10 C10         -0.9910    -7.1650    30.2520 ca         1 A1A       0.065000
     11 Cl11        -2.1640    -6.9740    28.9490 cl         1 A1A      -0.178000
     12 C12         -0.5330    -8.4510    30.5850 ca         1 A1A      -0.071000
     13 C13          1.5510   -10.7540    30.8010 c3         1 A1A      -0.177400
     14 C14          2.2490   -12.0410    31.2310 c          1 A1A       0.603100
     15 N15          1.5820   -13.1920    30.9970 nt         1 A1A      -0.613000
     16 O16          3.3610   -12.0610    31.7290 o          1 A1A      -0.585100
     17 C17         -1.3810   -12.3010    34.0120 cc         1 A1A      -0.192600
     18 C18         -2.5980   -12.0430    33.4180 cd         1 A1A      -0.173000
     19 N19         -3.5430   -12.8370    34.0780 na         1 A1A      -0.095000
     20 C20         -2.9000   -13.6270    35.0340 cd         1 A1A      -0.060000
     21 C21         -3.5640   -14.6910    35.7570 cd         1 A1A      -0.151000
     22 C22         -4.9130   -14.8930    35.6690 cc         1 A1A      -0.170000
     23 N23         -5.1260   -16.0020    36.4830 na         1 A1A       0.136800
     24 C24         -6.4200   -16.6430    36.7550 c3         1 A1A       0.072900
     25 N25         -3.9730   -16.5090    37.0530 nc         1 A1A      -0.519800
     26 C26         -3.0330   -15.7010    36.5950 cd         1 A1A       0.271900
     27 C27         -1.5740   -13.2510    35.0530 cc         1 A1A      -0.045000
     28 C28         -0.5710   -13.9110    35.8910 ca         1 A1A      -0.036000
     29 C29         -0.6760   -13.8210    37.2950 ca         1 A1A      -0.063000
     30 C30          0.2980   -14.4130    38.1200 ca         1 A1A      -0.126000
     31 C31          1.3840   -15.0930    37.5480 ca         1 A1A       0.144000
     32 Cl32         2.5970   -15.8360    38.5810 cl         1 A1A      -0.201000
     33 C33          1.5020   -15.1850    36.1540 ca         1 A1A      -0.150000
     34 C34          0.5330   -14.5910    35.3300 ca         1 A1A       0.205000
     35 F35          0.6420   -14.7340    33.9880 f          1 A1A      -0.167000
     36 H1          -1.1050   -10.7260    32.1450 hn         1 A1A       0.309500
     37 H2           1.6840    -9.9040    32.7690 h1         1 A1A       0.104700
     38 H3           1.5950    -7.6190    33.1380 ha         1 A1A       0.130000
     39 H4           0.7820    -5.3470    32.5420 ha         1 A1A       0.138000
     40 H5          -0.9150    -9.3070    30.0340 ha         1 A1A       0.122000
     41 H6           2.2960   -10.0860    30.3540 hc         1 A1A       0.064700
     42 H7           0.7660   -10.9840    30.0730 hc         1 A1A       0.064700
     43 H8           2.0020   -14.0690    31.2660 hn         1 A1A       0.313500
     44 H9           0.6640   -13.1690    30.5790 hn         1 A1A       0.313500
     45 H10         -2.8750   -11.3680    32.6150 h4         1 A1A       0.145000
     46 H11         -4.5310   -12.8800    33.8560 hn         1 A1A       0.348000
     47 H12         -5.7050   -14.3800    35.1390 h4         1 A1A       0.151000
     48 H13         -6.6050   -16.6520    37.8360 h1         1 A1A       0.058700
     49 H14         -7.2220   -16.0860    36.2560 h1         1 A1A       0.058700
     50 H15         -6.4050   -17.6720    36.3780 h1         1 A1A       0.058700
     51 H16         -2.0070   -15.9050    36.8650 h4         1 A1A       0.051100
     52 H17         -1.5090   -13.2850    37.7440 ha         1 A1A       0.124000
     53 H18          0.2110   -14.3410    39.2010 ha         1 A1A       0.131000
     54 H19          2.3380   -15.7180    35.7110 ha         1 A1A       0.146000
@<TRIPOS>BOND
     1     1     2 2   
     2     2     3 1   
     3     2    17 1   
     4     3     4 1   
     5     3    36 1   
     6     4     5 1   
     7     4    13 1   
     8     4    37 1   
     9     5     6 ar  
    10     5    12 ar  
    11     6     7 ar  
    12     6    38 1   
    13     7     8 ar  
    14     7    39 1   
    15     8     9 1   
    16     8    10 ar  
    17    10    11 1   
    18    10    12 ar  
    19    12    40 1   
    20    13    14 1   
    21    13    41 1   
    22    13    42 1   
    23    14    15 1   
    24    14    16 2   
    25    15    43 1   
    26    15    44 1   
    27    17    18 2   
    28    17    27 1   
    29    18    19 1   
    30    18    45 1   
    31    19    20 1   
    32    19    46 1   
    33    20    21 1   
    34    20    27 2   
    35    21    22 2   
    36    21    26 1   
    37    22    23 1   
    38    22    47 1   
    39    23    24 1   
    40    23    25 1   
    41    24    48 1   
    42    24    49 1   
    43    24    50 1   
    44    25    26 2   
    45    26    51 1   
    46    27    28 1   
    47    28    29 ar  
    48    28    34 ar  
    49    29    30 ar  
    50    29    52 1   
    51    30    31 ar  
    52    30    53 1   
    53    31    32 1   
    54    31    33 ar  
    55    33    34 ar  
    56    33    54 1   
    57    34    35 1   
@<TRIPOS>SUBSTRUCTURE
     1 A1A         1 TEMP              0 ****  ****    0 ROOT
