@<TRIPOS>MOLECULE
A1A
   57    61     1     0     0
SMALL
abcg2


@<TRIPOS>ATOM
      1 C1          21.9310    16.6230    22.7400 ca         1 A1A      -0.132000
      2 C10         17.9960    22.2510    21.5380 ca         1 A1A      -0.080200
      3 C11         21.2120    18.5600    20.9200 ca         1 A1A      -0.028000
      4 C12         17.6190    23.7290    23.8060 ca         1 A1A       0.097000
      5 C13         19.8710    21.4520    20.7330 cc         1 A1A       0.393800
      6 C14         20.4940    18.5750    18.7540 c          1 A1A       0.578000
      7 C15         19.4620    16.2140    18.8160 cy         1 A1A       0.231300
      8 C16         21.4830    16.2920    18.1360 cy         1 A1A       0.231300
      9 C17         20.6710    17.1180    19.1620 cy         1 A1A      -0.128700
     10 C18         20.6130    13.0550    18.4070 c3         1 A1A      -0.389100
     11 C2          22.0020    17.9680    23.0760 ca         1 A1A      -0.070000
     12 C20         17.2840    19.5600    19.5800 c3         1 A1A      -0.094400
     13 C21         16.1740    19.4370    20.6160 c3         1 A1A      -0.152400
     14 C23         15.6160    18.0400    20.6850 c3         1 A1A       0.300000
     15 C3          21.4970    16.2380    21.4720 ca         1 A1A      -0.058000
     16 C4          16.7040    22.6730    21.8320 ca         1 A1A      -0.108000
     17 C5          21.6430    18.9650    22.1690 ca         1 A1A      -0.126000
     18 C6          16.5280    23.4200    22.9820 ca         1 A1A      -0.083000
     19 C7          18.9050    23.3250    23.5200 ca         1 A1A      -0.038000
     20 C8          21.1410    17.2150    20.5690 ca         1 A1A      -0.145300
     21 C9          19.0860    22.5750    22.3590 ca         1 A1A       0.073400
     22 F31         16.5530    17.1290    20.9960 f          1 A1A      -0.116667
     23 F32         15.0800    17.6480    19.5190 f          1 A1A      -0.116667
     24 F33         14.6510    17.9290    21.6100 f          1 A1A      -0.116667
     25 N24         20.2380    22.0640    21.8260 nd         1 A1A      -0.572100
     26 N25         18.5280    21.5250    20.5010 na         1 A1A      -0.165600
     27 N26         20.8080    19.3490    19.8360 n          1 A1A      -0.224400
     28 N27         20.2240    15.6970    17.6740 nq         1 A1A      -0.718500
     29 O28         20.1430    18.9790    17.6680 o          1 A1A      -0.505000
     30 S34         20.0950    14.1590    17.1080 s6         1 A1A       1.198100
     31 CL35        17.3280    24.6630    25.2410 cl         1 A1A      -0.201000
     32 H1          22.2150    15.8710    23.4640 ha         1 A1A       0.122000
     33 H2          18.5330    16.7120    18.5440 h1         1 A1A       0.075700
     34 H3          19.2700    15.4810    19.6030 h1         1 A1A       0.075700
     35 H4          22.1650    15.5930    18.6260 h1         1 A1A       0.075700
     36 H5          22.0200    16.8500    17.3710 h1         1 A1A       0.075700
     37 H6          19.9750    13.1810    19.2800 h1         1 A1A       0.100033
     38 H7          20.5140    12.0390    18.0270 h1         1 A1A       0.100033
     39 H8          21.6520    13.2460    18.6660 h1         1 A1A       0.100033
     40 H9          21.8480    21.1250    20.1270 h1         1 A1A       0.088200
     41 H10         20.7150    21.1200    18.7880 h1         1 A1A       0.088200
     42 H11         22.3420    18.2560    24.0620 ha         1 A1A       0.122000
     43 H12         16.9300    19.2170    18.6060 hc         1 A1A       0.070200
     44 H13         18.1150    18.9160    19.8630 hc         1 A1A       0.070200
     45 H14         15.3520    20.1170    20.3810 hc         1 A1A       0.083700
     46 H15         16.5390    19.7020    21.6110 hc         1 A1A       0.083700
     47 H16         18.4440    21.0030    18.5010 h1         1 A1A       0.073200
     48 H17         16.9670    21.6580    19.1530 h1         1 A1A       0.073200
     49 H18         21.4470    15.1890    21.2010 ha         1 A1A       0.113000
     50 H19         15.8570    22.4430    21.1990 ha         1 A1A       0.122000
     51 H20         21.6980    20.0080    22.4470 ha         1 A1A       0.150000
     52 H21         15.5400    23.7680    23.2480 ha         1 A1A       0.132000
     53 H22         19.7400    23.5770    24.1600 ha         1 A1A       0.146000
     54 C19         20.8560    20.7920    19.8180 c3         1 A1A       0.090700
     55 C22         17.7930    20.9810    19.3740 c3         1 A1A       0.078600
     56 O29         21.0530    14.0500    16.0200 o          1 A1A      -0.521000
     57 O30         18.6790    13.9380    16.8680 o          1 A1A      -0.521000
@<TRIPOS>BOND
     1     1    11 ar  
     2     1    15 ar  
     3     1    32 1   
     4     2    16 ar  
     5     2    21 ar  
     6     2    26 1   
     7     3    17 ar  
     8     3    20 ar  
     9     3    27 1   
    10     4    18 ar  
    11     4    19 ar  
    12     4    31 1   
    13     5    25 2   
    14     5    26 1   
    15     5    54 1   
    16     6     9 1   
    17     6    27 1   
    18     6    29 2   
    19     7     9 1   
    20     7    28 1   
    21     7    33 1   
    22     7    34 1   
    23     8     9 1   
    24     8    28 1   
    25     8    35 1   
    26     8    36 1   
    27     9    20 1   
    28    10    30 1   
    29    10    37 1   
    30    10    38 1   
    31    10    39 1   
    32    11    17 ar  
    33    11    42 1   
    34    12    13 1   
    35    12    43 1   
    36    12    44 1   
    37    12    55 1   
    38    13    14 1   
    39    13    45 1   
    40    13    46 1   
    41    14    22 1   
    42    14    23 1   
    43    14    24 1   
    44    15    20 ar  
    45    15    49 1   
    46    16    18 ar  
    47    16    50 1   
    48    17    51 1   
    49    18    52 1   
    50    19    21 ar  
    51    19    53 1   
    52    21    25 1   
    53    26    55 1   
    54    27    54 1   
    55    28    30 1   
    56    30    56 2   
    57    30    57 2   
    58    40    54 1   
    59    41    54 1   
    60    47    55 1   
    61    48    55 1   
@<TRIPOS>SUBSTRUCTURE
     1 A1A         1 TEMP              0 ****  ****    0 ROOT
