@<TRIPOS>MOLECULE
A1A
   62    64     1     0     0
SMALL
No Charge or Current Charge


@<TRIPOS>ATOM
      1 C5           0.6810    -9.9790    31.8880 c3         1 A1A       0.178000
      2 C6           0.0320    -8.6580    31.4800 ca         1 A1A      -0.107300
      3 C7          -0.8720    -8.5980    30.3960 ca         1 A1A      -0.069000
      4 C8          -1.4690    -7.3780    30.0330 ca         1 A1A       0.067000
      5 C10         -1.1670    -6.2080    30.7560 ca         1 A1A       0.183000
      6 C13          0.3220    -7.4800    32.2000 ca         1 A1A      -0.066000
      7 C20         -2.9080   -13.8690    34.8610 cc         1 A1A      -0.159800
      8 C21         -3.6040   -14.8200    35.7300 ce         1 A1A      -0.053200
      9 C22         -4.9460   -15.0710    35.7480 cf         1 A1A      -0.318200
     10 C26         -8.5650   -16.2430    38.4380 c3         1 A1A       0.133600
     11 C28         -8.1700   -14.9180    40.4240 c3         1 A1A       0.144900
     12 C1          -1.4060   -12.5200    33.8140 cd         1 A1A      -0.202600
     13 O3           0.8390   -11.7080    34.1710 o          1 A1A      -0.578100
     14 N4          -0.3400   -10.8830    32.4140 ns         1 A1A      -0.512900
     15 Cl9         -2.5930    -7.3340    28.6750 cl         1 A1A      -0.177000
     16 F11         -1.7350    -5.0280    30.4180 f          1 A1A      -0.161000
     17 C12         -0.2740    -6.2590    31.8380 ca         1 A1A      -0.142000
     18 C14          1.4650   -10.6250    30.7250 c3         1 A1A      -0.178400
     19 O16          3.3810   -11.6920    31.7450 o          1 A1A      -0.584100
     20 N17          1.7940   -13.0400    30.9420 nt         1 A1A      -0.613000
     21 C18         -2.6100   -12.3470    33.1690 cc         1 A1A      -0.157000
     22 N19         -3.5210   -13.1690    33.8230 na         1 A1A      -0.082000
     23 C23         -5.5860   -16.0630    36.6470 c          1 A1A       0.614300
     24 N24         -6.9490   -16.1640    36.5040 ns         1 A1A      -0.501900
     25 C25         -7.8210   -17.0200    37.3260 c3         1 A1A       0.101000
     26 O27         -7.6000   -15.6770    39.3450 os         1 A1A      -0.437000
     27 O29         -4.9490   -16.7410    37.4390 o          1 A1A      -0.591100
     28 C30         -1.5740   -13.5240    34.8140 cd         1 A1A      -0.004000
     29 C31         -0.5570   -13.9670    35.7880 ca         1 A1A      -0.054000
     30 C32          0.7040   -14.4470    35.3620 ca         1 A1A       0.216000
     31 F33          0.9770   -14.5860    34.0430 f          1 A1A      -0.166000
     32 C34          1.6640   -14.8700    36.2950 ca         1 A1A      -0.151000
     33 C35          1.3750   -14.8210    37.6650 ca         1 A1A       0.150000
     34 Cl36         2.5770   -15.3500    38.8340 cl         1 A1A      -0.196000
     35 C37          0.1240   -14.3640    38.1040 ca         1 A1A      -0.122000
     36 C38         -0.8410   -13.9450    37.1700 ca         1 A1A      -0.061000
     37 H1           1.4010    -9.7630    32.6910 h1         1 A1A       0.107700
     38 H2          -1.1180    -9.4940    29.8330 ha         1 A1A       0.123000
     39 H3           1.0110    -7.5070    33.0430 ha         1 A1A       0.128000
     40 H4          -2.9630   -15.3910    36.4060 ha         1 A1A       0.220000
     41 H5          -5.6050   -14.5230    35.0790 ha         1 A1A       0.160000
     42 H6          -9.1780   -15.4540    37.9820 h1         1 A1A       0.021200
     43 H7          -9.2340   -16.9320    38.9700 h1         1 A1A       0.021200
     44 H8          -7.3780   -14.5200    41.0700 h1         1 A1A       0.028367
     45 H9          -8.7550   -14.0720    40.0400 h1         1 A1A       0.028367
     46 H10         -8.8290   -15.5470    41.0370 h1         1 A1A       0.028367
     47 H11         -1.2340   -10.9220    31.9460 hn         1 A1A       0.306500
     48 H12         -0.0470    -5.3540    32.3940 ha         1 A1A       0.138000
     49 H13          2.1410    -9.8700    30.3070 hc         1 A1A       0.065200
     50 H14          0.7490   -10.9550    29.9640 hc         1 A1A       0.065200
     51 H15          2.3090   -13.8560    31.2360 hn         1 A1A       0.313500
     52 H16          0.9010   -13.1340    30.4820 hn         1 A1A       0.313500
     53 H17         -2.9130   -11.6890    32.3630 h4         1 A1A       0.145000
     54 H18         -4.5050   -13.2400    33.5830 hn         1 A1A       0.351000
     55 H19         -7.3790   -15.5580    35.8170 hn         1 A1A       0.303500
     56 H20         -8.5640   -17.4870    36.6670 h1         1 A1A       0.066200
     57 H21         -7.2330   -17.8270    37.7800 h1         1 A1A       0.066200
     58 H22          2.6230   -15.2460    35.9520 ha         1 A1A       0.147000
     59 H23         -0.0980   -14.3310    39.1680 ha         1 A1A       0.134000
     60 H24         -1.7990   -13.5720    37.5250 ha         1 A1A       0.124000
     61 C15          2.3000   -11.8140    31.1970 c          1 A1A       0.601100
     62 C2          -0.1900   -11.6990    33.5130 c          1 A1A       0.649700
@<TRIPOS>BOND
     1     1     2 1   
     2     1    14 1   
     3     1    18 1   
     4     1    37 1   
     5     2     3 ar  
     6     2     6 ar  
     7     3     4 ar  
     8     3    38 1   
     9     4     5 ar  
    10     4    15 1   
    11     5    16 1   
    12     5    17 ar  
    13     6    17 ar  
    14     6    39 1   
    15     7     8 1   
    16     7    22 1   
    17     7    28 2   
    18     8     9 2   
    19     8    40 1   
    20     9    23 1   
    21     9    41 1   
    22    10    25 1   
    23    10    26 1   
    24    10    42 1   
    25    10    43 1   
    26    11    26 1   
    27    11    44 1   
    28    11    45 1   
    29    11    46 1   
    30    12    21 2   
    31    12    28 1   
    32    12    62 1   
    33    13    62 2   
    34    14    47 1   
    35    14    62 1   
    36    17    48 1   
    37    18    49 1   
    38    18    50 1   
    39    18    61 1   
    40    19    61 2   
    41    20    51 1   
    42    20    52 1   
    43    20    61 1   
    44    21    22 1   
    45    21    53 1   
    46    22    54 1   
    47    23    24 1   
    48    23    27 2   
    49    24    25 1   
    50    24    55 1   
    51    25    56 1   
    52    25    57 1   
    53    28    29 1   
    54    29    30 ar  
    55    29    36 ar  
    56    30    31 1   
    57    30    32 ar  
    58    32    33 ar  
    59    32    58 1   
    60    33    34 1   
    61    33    35 ar  
    62    35    36 ar  
    63    35    59 1   
    64    36    60 1   
@<TRIPOS>SUBSTRUCTURE
     1 A1A         1 TEMP              0 ****  ****    0 ROOT
