@<TRIPOS>MOLECULE
A1A
   41    43     1     0     0
SMALL
No Charge or Current Charge


@<TRIPOS>ATOM
      1 C1X        147.0300   146.2980   156.0170 c          1 A1A       0.727200
      2 C2X        146.8730   146.3700   154.4920 ce         1 A1A       0.002400
      3 C3X        146.8050   145.3160   153.6120 c2         1 A1A      -0.222400
      4 C4X        145.8930   147.9760   152.8280 cy         1 A1A       0.197700
      5 C5X        147.3010   148.9670   154.0820 c          1 A1A       0.578000
      6 C6X        146.8240   143.8480   154.0200 c3         1 A1A      -0.012900
      7 C7X        146.6050   145.4700   152.0960 c6         1 A1A       0.130800
      8 C8X        146.2200   149.4970   153.0760 cy         1 A1A       0.005700
      9 N1X        146.9180   147.6500   153.8180 nj         1 A1A      -0.279000
     10 N2X        146.6210   150.3530   151.9680 ns         1 A1A      -0.477900
     11 N3X        145.5280   152.1440   148.7490 n8         1 A1A      -0.979200
     12 O1X        147.1200   145.2130   156.5760 o          1 A1A      -0.693000
     13 O2X        147.0170   147.3450   156.6520 o          1 A1A      -0.693000
     14 O3X        148.1240   149.4820   154.8290 o          1 A1A      -0.478000
     15 O4X        144.5420   150.6160   151.0770 o          1 A1A      -0.581100
     16 S1X        146.6110   147.1560   151.3360 ss         1 A1A      -0.498000
     17 C10X       146.4180   151.6970   149.8690 c3         1 A1A       0.142800
     18 C11X       147.6430   150.9920   149.2850 ca         1 A1A      -0.135300
     19 C12X       147.5220   149.7090   148.7110 ca         1 A1A      -0.045500
     20 C13X       148.9090   151.6120   149.3280 ca         1 A1A      -0.045500
     21 C14X       148.6530   149.0570   148.1900 ca         1 A1A      -0.176000
     22 C15X       150.0380   150.9570   148.8050 ca         1 A1A      -0.176000
     23 C16X       149.9090   149.6790   148.2370 ca         1 A1A       0.146100
     24 H1X        144.8800   147.6190   153.0470 h2         1 A1A       0.096700
     25 H4X        145.9880   143.6130   154.6900 hc         1 A1A       0.030700
     26 H3X        146.7410   143.1740   153.1580 hc         1 A1A       0.030700
     27 H2X        147.7580   143.5920   154.5340 hc         1 A1A       0.030700
     28 H5X        145.6310   145.0270   151.8390 h1         1 A1A       0.054700
     29 H6X        147.3650   144.8810   151.5640 h1         1 A1A       0.054700
     30 H7X        145.4160   150.0030   153.6200 h1         1 A1A       0.103700
     31 H8X        147.6020   150.5660   151.8190 hn         1 A1A       0.329500
     32 H16X       151.7810   149.6190   147.8480 ho         1 A1A       0.461000
     33 H9X        146.7660   152.6110   150.3690 h1         1 A1A       0.027700
     34 H12X       146.5520   149.2170   148.6710 ha         1 A1A       0.122500
     35 H13X       149.0200   152.6020   149.7670 ha         1 A1A       0.122500
     36 H14X       148.5540   148.0680   147.7520 ha         1 A1A       0.118000
     37 H15X       151.0070   151.4470   148.8460 ha         1 A1A       0.118000
     38 C9X        145.7480   150.8370   151.0130 c          1 A1A       0.603100
     39 H10X       144.7500   152.6920   149.1370 hn         1 A1A       0.400500
     40 O5X        150.9990   149.0390   147.7290 oh         1 A1A      -0.538100
     41 H11X       146.0390   152.8140   148.1630 hn         1 A1A       0.400500
@<TRIPOS>BOND
     1     1     2 1   
     2     1    12 1   
     3     1    13 1   
     4     2     3 2   
     5     2     9 1   
     6     3     6 1   
     7     3     7 1   
     8     4     8 1   
     9     4     9 1   
    10     4    16 1   
    11     4    24 1   
    12     5     8 1   
    13     5     9 1   
    14     5    14 2   
    15     6    25 1   
    16     6    26 1   
    17     6    27 1   
    18     7    16 1   
    19     7    28 1   
    20     7    29 1   
    21     8    10 1   
    22     8    30 1   
    23    10    31 1   
    24    10    38 1   
    25    11    17 1   
    26    11    39 1   
    27    11    41 1   
    28    15    38 2   
    29    17    18 1   
    30    17    33 1   
    31    17    38 1   
    32    18    19 ar  
    33    18    20 ar  
    34    19    21 ar  
    35    19    34 1   
    36    20    22 ar  
    37    20    35 1   
    38    21    23 ar  
    39    21    36 1   
    40    22    23 ar  
    41    22    37 1   
    42    23    40 1   
    43    32    40 1   
@<TRIPOS>SUBSTRUCTURE
     1 A1A         1 TEMP              0 ****  ****    0 ROOT
