@<TRIPOS>MOLECULE
A1A
   23    24     1     0     0
SMALL
abcg2


@<TRIPOS>ATOM
      1 N1           4.2870    24.6960   -20.9390 n7         1 A1A      -0.876400
      2 C4           6.5140    24.8920   -21.8860 c6         1 A1A      -0.076400
      3 C5           5.0860    24.4220   -22.1210 c6         1 A1A       0.156800
      4 C6           4.1900    26.1150   -20.6750 c6         1 A1A       0.151800
      5 N            5.9090    28.1870   -18.6460 ns         1 A1A      -0.486500
      6 C            6.1720    26.9390   -18.0790 c          1 A1A       0.610000
      7 O            6.4520    26.7480   -16.9170 o          1 A1A      -0.544000
      8 C1           5.5520    28.1050   -19.9560 c          1 A1A       0.565000
      9 C2           5.5900    26.6280   -20.3160 c5         1 A1A       0.026400
     10 C3           6.5390    26.3650   -21.4900 c6         1 A1A      -0.067400
     11 N2           6.0590    26.0420   -19.0800 ns         1 A1A      -0.497900
     12 O1           5.2610    29.0180   -20.6910 o          1 A1A      -0.506000
     13 H7           3.3600    24.3050   -21.0400 hn         1 A1A       0.424000
     14 H3           7.1100    24.7460   -22.7880 hc         1 A1A       0.053200
     15 H4           6.9730    24.2840   -21.1020 hc         1 A1A       0.053200
     16 H5           4.6860    24.9220   -23.0180 h1         1 A1A       0.036200
     17 H6           5.0700    23.3480   -22.3160 h1         1 A1A       0.036200
     18 H8           3.8190    26.6950   -21.5330 h1         1 A1A       0.052200
     19 H9           3.5070    26.2820   -19.8390 h1         1 A1A       0.052200
     20 H            5.9650    29.0490   -18.1210 hn         1 A1A       0.355500
     21 H1           6.2130    26.9760   -22.3360 hc         1 A1A       0.062200
     22 H2           7.5510    26.6830   -21.2290 hc         1 A1A       0.062200
     23 H10          5.9770    25.0550   -18.8950 hn         1 A1A       0.357500
@<TRIPOS>BOND
     1     1     3 1   
     2     1     4 1   
     3     1    13 1   
     4     2     3 1   
     5     2    10 1   
     6     2    14 1   
     7     2    15 1   
     8     3    16 1   
     9     3    17 1   
    10     4     9 1   
    11     4    18 1   
    12     4    19 1   
    13     5     6 1   
    14     5     8 1   
    15     5    20 1   
    16     6     7 2   
    17     6    11 1   
    18     8     9 1   
    19     8    12 2   
    20     9    10 1   
    21     9    11 1   
    22    10    21 1   
    23    10    22 1   
    24    11    23 1   
@<TRIPOS>SUBSTRUCTURE
     1 A1A         1 TEMP              0 ****  ****    0 ROOT
