@<TRIPOS>MOLECULE
A1A
   26    27     1     0     0
SMALL
No Charge or Current Charge


@<TRIPOS>ATOM
      1 N1           4.2490    29.7910   -18.4920 n          1 A1A      -0.274000
      2 C4           3.5340    30.9940   -17.9760 c3         1 A1A       0.056700
      3 C5           4.7910    28.8570   -17.6050 cc         1 A1A      -0.034400
      4 C6           5.4660    27.7350   -18.0440 cd         1 A1A      -0.295000
      5 C7           5.6270    27.5080   -19.4530 cd         1 A1A      -0.088000
      6 C8           5.0930    28.4370   -20.3200 cc         1 A1A      -0.315200
      7 N            3.7220    33.4110   -18.5680 nc         1 A1A      -0.692000
      8 C            4.3200    36.6440   -17.7320 c3         1 A1A      -0.090100
      9 O            3.9100    30.4450   -20.6890 o          1 A1A      -0.544000
     10 C2           4.7220    34.2640   -18.5330 cd         1 A1A       0.486300
     11 C3           4.3260    32.2760   -18.1100 cc         1 A1A       0.528300
     12 C9           4.3700    29.6400   -19.8910 c          1 A1A       0.559200
     13 N2           5.6070    32.3750   -17.7880 nd         1 A1A      -0.378300
     14 O1           5.8880    33.7300   -18.0750 os         1 A1A      -0.088700
     15 H6           3.2850    30.8560   -16.9170 h1         1 A1A       0.093200
     16 H5           2.5860    31.1060   -18.5160 h1         1 A1A       0.093200
     17 H7           4.6260    29.1110   -16.5610 h4         1 A1A       0.202000
     18 H8           5.8740    27.0280   -17.3240 ha         1 A1A       0.201000
     19 H9           6.1560    26.6310   -19.8250 ha         1 A1A       0.186000
     20 H10          5.1840    28.3210   -21.3950 ha         1 A1A       0.208000
     21 H2           4.2670    37.6880   -18.0630 hc         1 A1A       0.047700
     22 H            3.3570    36.3790   -17.2780 hc         1 A1A       0.047700
     23 H1           5.0980    36.5660   -16.9630 hc         1 A1A       0.047700
     24 H3           3.8640    35.8410   -19.6930 hc         1 A1A       0.078200
     25 H4           5.5820    36.0240   -19.3810 hc         1 A1A       0.078200
     26 C1           4.6350    35.7140   -18.9240 c3         1 A1A      -0.114700
@<TRIPOS>BOND
     1     1     2 1   
     2     1     3 1   
     3     1    12 1   
     4     2    11 1   
     5     2    15 1   
     6     2    16 1   
     7     3     4 2   
     8     3    17 1   
     9     4     5 1   
    10     4    18 1   
    11     5     6 2   
    12     5    19 1   
    13     6    12 1   
    14     6    20 1   
    15     7    10 2   
    16     7    11 1   
    17     8    21 1   
    18     8    22 1   
    19     8    23 1   
    20     8    26 1   
    21     9    12 2   
    22    10    14 1   
    23    10    26 1   
    24    11    13 2   
    25    13    14 1   
    26    24    26 1   
    27    25    26 1   
@<TRIPOS>SUBSTRUCTURE
     1 A1A         1 TEMP              0 ****  ****    0 ROOT
