@<TRIPOS>MOLECULE
A1A
   79    83     1     0     0
SMALL
No Charge or Current Charge


@<TRIPOS>ATOM
      1 C14        123.8960   116.8780   123.8380 ca         1 A1A      -0.139000
      2 C13        125.1500   116.2930   124.1340 cp         1 A1A      -0.062000
      3 C12        125.3530   115.5170   125.3980 cp         1 A1A       0.026000
      4 C11        125.6550   114.0190   127.8000 ca         1 A1A      -0.101000
      5 C10        125.7140   113.3680   126.5620 ca         1 A1A      -0.074000
      6 C15        123.7430   117.6050   122.6390 ca         1 A1A       0.090100
      7 C17        121.4200   118.2530   123.1720 c3         1 A1A       0.208900
      8 C01        124.4740   105.3420   124.3050 c3         1 A1A       0.096300
      9 C03        124.7320   107.8350   124.0970 c          1 A1A       0.591100
     10 C04        124.4820   109.1900   124.8250 c3         1 A1A       0.046700
     11 N05        125.1980   110.3000   124.1580 ns         1 A1A      -0.487900
     12 C06        126.4390   110.7650   124.5240 c          1 A1A       0.606100
     13 C07        126.8910   112.0410   123.8060 c3         1 A1A      -0.036400
     14 C09        125.5700   114.1090   125.3780 ca         1 A1A      -0.106000
     15 O16        122.5510   118.2110   122.2840 os         1 A1A      -0.334100
     16 C18        120.2860   118.9870   122.4720 ca         1 A1A      -0.096300
     17 C19        119.3430   118.2730   121.7060 ca         1 A1A      -0.087000
     18 C20        118.2950   118.9510   121.0600 ca         1 A1A      -0.113500
     19 C21        118.1820   120.3470   121.1760 ca         1 A1A      -0.100000
     20 C22        119.1200   121.0650   121.9370 ca         1 A1A      -0.113500
     21 C23        120.1690   120.3870   122.5830 ca         1 A1A      -0.087000
     22 C24        124.8580   117.7160   121.7770 ca         1 A1A       0.310900
     23 N25        126.0710   117.1690   122.0430 nb         1 A1A      -0.636000
     24 C26        126.2020   116.4760   123.2000 ca         1 A1A       0.301900
     25 C27        125.3070   116.1650   126.6710 ca         1 A1A      -0.037000
     26 C28        125.4540   115.4080   127.8610 ca         1 A1A      -0.019000
     27 C29        125.3940   116.0380   129.1190 ca         1 A1A      -0.106000
     28 C30        125.1950   117.4240   129.2080 ca         1 A1A      -0.095000
     29 C31        125.0610   118.1850   128.0390 ca         1 A1A      -0.110000
     30 C32        125.1180   117.5630   126.7800 ca         1 A1A      -0.089000
     31 O33        127.1210   110.2070   125.3720 o          1 A1A      -0.600100
     32 C34        122.9700   109.5130   124.9340 c3         1 A1A      -0.044100
     33 C35        122.6950   110.8980   125.5130 ca         1 A1A      -0.055300
     34 C36        122.3260   111.9620   124.6690 ca         1 A1A      -0.197000
     35 C37        122.0810   113.2490   125.1980 ca         1 A1A       0.143100
     36 O38        121.7190   114.3120   124.3890 os         1 A1A      -0.339100
     37 C39        121.7100   114.2160   122.9540 c3         1 A1A       0.144900
     38 C40        122.1980   113.4670   126.5890 ca         1 A1A      -0.105300
     39 C41        121.9370   114.8440   127.1890 c3         1 A1A      -0.035800
     40 C42        122.5650   112.3990   127.4300 ca         1 A1A      -0.082000
     41 C43        122.8150   111.1250   126.8950 ca         1 A1A      -0.140000
     42 H1         123.0770   116.7540   124.5390 ha         1 A1A       0.130000
     43 H2         125.7570   113.4390   128.7130 ha         1 A1A       0.120000
     44 H3         125.8390   112.2920   126.5410 ha         1 A1A       0.133000
     45 H4         121.6790   118.7770   124.1010 h1         1 A1A       0.044700
     46 H5         121.0900   117.2400   123.4330 h1         1 A1A       0.044700
     47 H6         124.0820   104.6410   125.0530 h1         1 A1A       0.040700
     48 H7         123.9100   105.2260   123.3700 h1         1 A1A       0.040700
     49 H8         125.5330   105.1190   124.1210 h1         1 A1A       0.040700
     50 H9         123.9300   106.8610   125.7150 hn         1 A1A       0.316500
     51 H10        124.8760   109.0850   125.8440 h1         1 A1A       0.063700
     52 H11        124.7040   110.8400   123.4580 hn         1 A1A       0.339500
     53 H12        127.1560   111.7570   122.7820 h1         1 A1A       0.103700
     54 H13        127.7840   112.4310   124.3070 h1         1 A1A       0.103700
     55 H14        119.4250   117.1920   121.6090 ha         1 A1A       0.116000
     56 H15        117.5700   118.3950   120.4690 ha         1 A1A       0.115000
     57 H16        117.3710   120.8710   120.6760 ha         1 A1A       0.114000
     58 H17        119.0350   122.1450   122.0270 ha         1 A1A       0.115000
     59 H18        120.8930   120.9500   123.1690 ha         1 A1A       0.116000
     60 H19        124.7760   118.2690   120.8420 h4         1 A1A       0.034100
     61 H20        127.1850   116.0470   123.3940 h4         1 A1A       0.031100
     62 H21        125.5020   115.4540   130.0300 ha         1 A1A       0.115000
     63 H22        125.1500   117.9060   130.1820 ha         1 A1A       0.115000
     64 H23        124.9130   119.2610   128.1060 ha         1 A1A       0.117000
     65 H24        125.0200   118.1870   125.8960 ha         1 A1A       0.124000
     66 H25        122.5170   109.4260   123.9380 hc         1 A1A       0.066700
     67 H26        122.4800   108.7510   125.5520 hc         1 A1A       0.066700
     68 H27        122.2360   111.7730   123.6040 ha         1 A1A       0.120000
     69 H28        121.4260   115.1770   122.5080 h1         1 A1A       0.043033
     70 H29        122.7060   113.9500   122.5770 h1         1 A1A       0.043033
     71 H30        120.9900   113.4610   122.6160 h1         1 A1A       0.043033
     72 H31        120.8680   115.0870   127.1610 hc         1 A1A       0.044700
     73 H32        122.2640   114.9020   128.2340 hc         1 A1A       0.044700
     74 H33        122.4710   115.6260   126.6390 hc         1 A1A       0.044700
     75 H34        122.6630   112.5560   128.5020 ha         1 A1A       0.114000
     76 H35        123.1030   110.3120   127.5580 ha         1 A1A       0.114000
     77 S08        125.5770   113.3580   123.7400 ss         1 A1A      -0.223000
     78 O44        125.2430   107.7460   122.9860 o          1 A1A      -0.595100
     79 N02        124.3360   106.7140   124.7980 ns         1 A1A      -0.499900
@<TRIPOS>BOND
     1     1     2 ar  
     2     1     6 ar  
     3     1    42 1   
     4     2     3 1   
     5     2    24 ar  
     6     3    14 ar  
     7     3    25 ar  
     8     4     5 ar  
     9     4    26 ar  
    10     4    43 1   
    11     5    14 ar  
    12     5    44 1   
    13     6    15 1   
    14     6    22 ar  
    15     7    15 1   
    16     7    16 1   
    17     7    45 1   
    18     7    46 1   
    19     8    47 1   
    20     8    48 1   
    21     8    49 1   
    22     8    79 1   
    23     9    10 1   
    24     9    78 2   
    25     9    79 1   
    26    10    11 1   
    27    10    32 1   
    28    10    51 1   
    29    11    12 1   
    30    11    52 1   
    31    12    13 1   
    32    12    31 2   
    33    13    53 1   
    34    13    54 1   
    35    13    77 1   
    36    14    77 1   
    37    16    17 ar  
    38    16    21 ar  
    39    17    18 ar  
    40    17    55 1   
    41    18    19 ar  
    42    18    56 1   
    43    19    20 ar  
    44    19    57 1   
    45    20    21 ar  
    46    20    58 1   
    47    21    59 1   
    48    22    23 ar  
    49    22    60 1   
    50    23    24 ar  
    51    24    61 1   
    52    25    26 ar  
    53    25    30 ar  
    54    26    27 ar  
    55    27    28 ar  
    56    27    62 1   
    57    28    29 ar  
    58    28    63 1   
    59    29    30 ar  
    60    29    64 1   
    61    30    65 1   
    62    32    33 1   
    63    32    66 1   
    64    32    67 1   
    65    33    34 ar  
    66    33    41 ar  
    67    34    35 ar  
    68    34    68 1   
    69    35    36 1   
    70    35    38 ar  
    71    36    37 1   
    72    37    69 1   
    73    37    70 1   
    74    37    71 1   
    75    38    39 1   
    76    38    40 ar  
    77    39    72 1   
    78    39    73 1   
    79    39    74 1   
    80    40    41 ar  
    81    40    75 1   
    82    41    76 1   
    83    50    79 1   
@<TRIPOS>SUBSTRUCTURE
     1 A1A         1 TEMP              0 ****  ****    0 ROOT
