@<TRIPOS>MOLECULE
A1A
   22    22     1     0     0
SMALL
No Charge or Current Charge


@<TRIPOS>ATOM
      1 N1          18.7330    -0.0620    16.8400 nc         1 A1A      -0.677000
      2 C4          17.5380    -0.5550    17.2830 cc         1 A1A       0.235900
      3 C5          18.4270     0.9070    15.9910 cd         1 A1A       0.408800
      4 C6          19.4630     1.7210    15.2640 c3         1 A1A      -0.125400
      5 N           17.0500     1.0530    15.8800 na         1 A1A      -0.173500
      6 C           14.8690     4.1320    14.9260 c3         1 A1A      -0.092100
      7 O           16.6000     3.8860    16.5960 oh         1 A1A      -0.657000
      8 C1          15.6290     3.1520    15.8390 c3         1 A1A       0.160300
      9 C2          16.3190     2.0210    15.0370 c3         1 A1A       0.030600
     10 C3          16.4820     0.1050    16.7140 cd         1 A1A      -0.243000
     11 H8          17.5130    -1.3690    17.9970 h4         1 A1A       0.037100
     12 H11         20.4770     1.4600    15.5890 hc         1 A1A       0.056700
     13 H10         19.4020     1.5500    14.1840 hc         1 A1A       0.056700
     14 H9          19.3170     2.7910    15.4480 hc         1 A1A       0.056700
     15 H           14.3740     4.9090    15.5220 hc         1 A1A       0.047700
     16 H1          15.5520     4.6210    14.2210 hc         1 A1A       0.047700
     17 H4          16.9440     3.2740    17.2840 ho         1 A1A       0.455000
     18 H3          14.9000     2.6930    16.5210 h1         1 A1A       0.035700
     19 H6          15.5550     1.4710    14.4730 h1         1 A1A       0.068200
     20 H5          17.0080     2.4620    14.3070 h1         1 A1A       0.068200
     21 H7          15.4140    -0.0290    16.8410 h4         1 A1A       0.154000
     22 H2          14.1000     3.6040    14.3510 hc         1 A1A       0.047700
@<TRIPOS>BOND
     1     1     2 1   
     2     1     3 2   
     3     2    10 2   
     4     2    11 1   
     5     3     4 1   
     6     3     5 1   
     7     4    12 1   
     8     4    13 1   
     9     4    14 1   
    10     5     9 1   
    11     5    10 1   
    12     6     8 1   
    13     6    15 1   
    14     6    16 1   
    15     6    22 1   
    16     7     8 1   
    17     7    17 1   
    18     8     9 1   
    19     8    18 1   
    20     9    19 1   
    21     9    20 1   
    22    10    21 1   
@<TRIPOS>SUBSTRUCTURE
     1 A1A         1 TEMP              0 ****  ****    0 ROOT
