@<TRIPOS>MOLECULE
A1A
   57    61     1     0     0
SMALL
No Charge or Current Charge


@<TRIPOS>ATOM
      1 C1          20.9830    16.5070    23.0290 ca         1 A1A      -0.132000
      2 C10         18.0700    22.2650    21.3230 ca         1 A1A      -0.080200
      3 C11         21.0070    18.4380    21.0080 ca         1 A1A      -0.028000
      4 C12         17.5590    24.2140    23.2270 ca         1 A1A       0.097000
      5 C13         20.0140    21.4550    20.5950 cc         1 A1A       0.393800
      6 C14         20.7040    18.4410    18.6450 c          1 A1A       0.578000
      7 C15         19.5200    16.3970    18.3910 cy         1 A1A       0.231300
      8 C16         21.7090    16.3490    18.1580 cy         1 A1A       0.231300
      9 C17         20.7260    16.9470    19.2030 cy         1 A1A      -0.128700
     10 C18         20.4000    13.3210    17.6040 c3         1 A1A      -0.389100
     11 C2          21.0610    17.8800    23.3600 ca         1 A1A      -0.070000
     12 C20         17.4330    19.1260    20.1250 c3         1 A1A      -0.094400
     13 C21         16.6020    19.1570    21.4350 c3         1 A1A      -0.152400
     14 C23         16.2780    17.7610    22.0120 c3         1 A1A       0.300000
     15 C3          20.8860    16.1020    21.6830 ca         1 A1A      -0.058000
     16 C4          16.7310    22.6020    21.5810 ca         1 A1A      -0.108000
     17 C5          21.0550    18.8620    22.3460 ca         1 A1A      -0.126000
     18 C6          16.4820    23.5930    22.5530 ca         1 A1A      -0.083000
     19 C7          18.8900    23.8550    22.9350 ca         1 A1A      -0.038000
     20 C8          20.8920    17.0960    20.6960 ca         1 A1A      -0.145300
     21 C9          19.1150    22.8670    21.9660 ca         1 A1A       0.073400
     22 F31         17.4090    17.0830    22.3130 f          1 A1A      -0.116667
     23 F32         15.5670    17.0220    21.1300 f          1 A1A      -0.116667
     24 F33         15.5480    17.8730    23.1440 f          1 A1A      -0.116667
     25 N24         20.3400    22.3800    21.5230 nd         1 A1A      -0.572100
     26 N25         18.6180    21.3580    20.4590 na         1 A1A      -0.165600
     27 N26         20.8670    19.2160    19.8200 n          1 A1A      -0.224400
     28 N27         20.5040    16.0840    17.2950 nq         1 A1A      -0.718500
     29 O28         20.5890    18.9840    17.5490 o          1 A1A      -0.505000
     30 S34         20.3940    14.6340    16.3890 s6         1 A1A       1.198100
     31 Cl35        17.2330    25.4500    24.4370 cl         1 A1A      -0.201000
     32 H1          20.9790    15.7600    23.8200 ha         1 A1A       0.122000
     33 H2          18.7280    17.1130    18.1380 h1         1 A1A       0.075700
     34 H3          19.0670    15.5230    18.8740 h1         1 A1A       0.075700
     35 H4          22.2130    15.4520    18.5370 h1         1 A1A       0.075700
     36 H5          22.4620    17.0310    17.7430 h1         1 A1A       0.075700
     37 H6          19.5170    13.4380    18.2380 h1         1 A1A       0.100033
     38 H7          20.3620    12.3750    17.0550 h1         1 A1A       0.100033
     39 H8          21.3250    13.3980    18.1840 h1         1 A1A       0.100033
     40 H9          22.0380    20.9230    20.1850 h1         1 A1A       0.088200
     41 H10         21.0090    21.0610    18.7600 h1         1 A1A       0.088200
     42 H11         21.1140    18.1820    24.4040 ha         1 A1A       0.122000
     43 H12         16.8710    18.5800    19.3570 hc         1 A1A       0.070200
     44 H13         18.3430    18.5490    20.3070 hc         1 A1A       0.070200
     45 H14         15.6600    19.6900    21.2560 hc         1 A1A       0.083700
     46 H15         17.1470    19.7210    22.2020 hc         1 A1A       0.083700
     47 H16         18.3770    20.3720    18.6200 h1         1 A1A       0.073200
     48 H17         16.8970    21.0550    19.2790 h1         1 A1A       0.073200
     49 H18         20.7940    15.0510    21.4200 ha         1 A1A       0.113000
     50 H19         15.9070    22.1240    21.0570 ha         1 A1A       0.122000
     51 H20         21.0940    19.9150    22.6100 ha         1 A1A       0.150000
     52 H21         15.4600    23.8820    22.7850 ha         1 A1A       0.132000
     53 H22         19.7220    24.3320    23.4440 ha         1 A1A       0.146000
     54 C19         21.0420    20.6900    19.7900 c3         1 A1A       0.090700
     55 C22         17.8130    20.5150    19.5490 c3         1 A1A       0.078600
     56 O29         21.6220    14.5510    15.5930 o          1 A1A      -0.521000
     57 O30         19.0910    14.6610    15.7170 o          1 A1A      -0.521000
@<TRIPOS>BOND
     1     1    11 ar  
     2     1    15 ar  
     3     1    32 1   
     4     2    16 ar  
     5     2    21 ar  
     6     2    26 1   
     7     3    17 ar  
     8     3    20 ar  
     9     3    27 1   
    10     4    18 ar  
    11     4    19 ar  
    12     4    31 1   
    13     5    25 2   
    14     5    26 1   
    15     5    54 1   
    16     6     9 1   
    17     6    27 1   
    18     6    29 2   
    19     7     9 1   
    20     7    28 1   
    21     7    33 1   
    22     7    34 1   
    23     8     9 1   
    24     8    28 1   
    25     8    35 1   
    26     8    36 1   
    27     9    20 1   
    28    10    30 1   
    29    10    37 1   
    30    10    38 1   
    31    10    39 1   
    32    11    17 ar  
    33    11    42 1   
    34    12    13 1   
    35    12    43 1   
    36    12    44 1   
    37    12    55 1   
    38    13    14 1   
    39    13    45 1   
    40    13    46 1   
    41    14    22 1   
    42    14    23 1   
    43    14    24 1   
    44    15    20 ar  
    45    15    49 1   
    46    16    18 ar  
    47    16    50 1   
    48    17    51 1   
    49    18    52 1   
    50    19    21 ar  
    51    19    53 1   
    52    21    25 1   
    53    26    55 1   
    54    27    54 1   
    55    28    30 1   
    56    30    56 2   
    57    30    57 2   
    58    40    54 1   
    59    41    54 1   
    60    47    55 1   
    61    48    55 1   
@<TRIPOS>SUBSTRUCTURE
     1 A1A         1 TEMP              0 ****  ****    0 ROOT
