@<TRIPOS>MOLECULE
A1A
   23    24     1     0     0
SMALL
No Charge or Current Charge


@<TRIPOS>ATOM
      1 N1           4.1780    24.6620   -21.0260 n7         1 A1A      -0.876400
      2 C4           6.5250    24.8580   -21.8650 c6         1 A1A      -0.076400
      3 C5           5.0880    24.3630   -22.1580 c6         1 A1A       0.156800
      4 C6           4.1400    26.1140   -20.6880 c6         1 A1A       0.151800
      5 N            5.9330    28.1710   -18.6340 ns         1 A1A      -0.486500
      6 C            6.2420    27.0010   -18.0670 c          1 A1A       0.610000
      7 O            6.6170    26.8180   -16.9260 o          1 A1A      -0.544000
      8 C1           5.5090    28.1640   -19.9160 c          1 A1A       0.565000
      9 C2           5.5540    26.6470   -20.3010 c5         1 A1A       0.026400
     10 C3           6.5310    26.3600   -21.4780 c6         1 A1A      -0.067400
     11 N2           6.0430    26.0570   -19.0250 ns         1 A1A      -0.497900
     12 O1           5.1830    29.1470   -20.5620 o          1 A1A      -0.506000
     13 H7           3.2280    24.3520   -21.2750 hn         1 A1A       0.424000
     14 H3           7.1590    24.6950   -22.7470 hc         1 A1A       0.053200
     15 H4           6.9610    24.2600   -21.0540 hc         1 A1A       0.053200
     16 H5           4.7110    24.8540   -23.0690 h1         1 A1A       0.036200
     17 H6           5.1010    23.2790   -22.3450 h1         1 A1A       0.036200
     18 H8           3.7540    26.6830   -21.5480 h1         1 A1A       0.052200
     19 H9           3.4450    26.2770   -19.8500 h1         1 A1A       0.052200
     20 H            6.0030    29.0300   -18.1130 hn         1 A1A       0.355500
     21 H1           6.2420    26.9620   -22.3510 hc         1 A1A       0.062200
     22 H2           7.5490    26.6740   -21.2100 hc         1 A1A       0.062200
     23 H10          6.1440    25.0740   -18.8050 hn         1 A1A       0.357500
@<TRIPOS>BOND
     1     1     3 1   
     2     1     4 1   
     3     1    13 1   
     4     2     3 1   
     5     2    10 1   
     6     2    14 1   
     7     2    15 1   
     8     3    16 1   
     9     3    17 1   
    10     4     9 1   
    11     4    18 1   
    12     4    19 1   
    13     5     6 1   
    14     5     8 1   
    15     5    20 1   
    16     6     7 2   
    17     6    11 1   
    18     8     9 1   
    19     8    12 2   
    20     9    10 1   
    21     9    11 1   
    22    10    21 1   
    23    10    22 1   
    24    11    23 1   
@<TRIPOS>SUBSTRUCTURE
     1 A1A         1 TEMP              0 ****  ****    0 ROOT
