@<TRIPOS>MOLECULE
A1A
  107   111     1     0     0
SMALL
No Charge or Current Charge


@<TRIPOS>ATOM
      1 C01         27.2130    34.0070   135.6420 c3         1 A1A      -0.084100
      2 C02         26.8860    32.9820   136.7570 c3         1 A1A      -0.089000
      3 C03         28.1720    32.4660   137.4400 c3         1 A1A      -0.084100
      4 C04         25.8880    33.5020   137.7730 cc         1 A1A       0.432700
      5 C06         24.8750    34.8960   139.1760 cd         1 A1A       0.242300
      6 C07         24.6530    36.2440   139.8230 c3         1 A1A       0.071700
      7 C09         22.3810    37.1510   140.5250 c3         1 A1A       0.095300
      8 C10         23.0570    37.2580   138.1230 c          1 A1A       0.640100
      9 C13         23.8300    37.0700   135.7250 c3         1 A1A       0.037700
     10 C14         25.1000    37.6490   135.0340 c3         1 A1A      -0.123400
     11 C15         25.0520    39.1660   134.7120 c3         1 A1A       0.229800
     12 C17         24.8700    40.2680   137.0060 c6         1 A1A       0.176300
     13 C18         25.6270    39.6780   138.2440 c6         1 A1A       0.143100
     14 C20         27.6230    39.1490   136.9950 c6         1 A1A       0.143100
     15 C21         27.0990    40.1190   135.8790 c6         1 A1A       0.176300
     16 C22         23.4780    35.6620   135.1630 c          1 A1A       0.579100
     17 C25         22.5220    34.4200   133.2070 c3         1 A1A       0.112700
     18 C26         23.7250    33.8800   132.3860 c3         1 A1A      -0.087400
     19 C27         23.8880    32.3340   132.3730 c3         1 A1A      -0.098400
     20 C28         24.5550    31.7460   133.6520 c3         1 A1A       0.143700
     21 C29         25.0200    30.2770   133.4830 c3         1 A1A      -0.047100
     22 C30         26.2600    30.1550   132.6050 ca         1 A1A      -0.082300
     23 C31         27.5170    30.5590   133.1000 ca         1 A1A      -0.108500
     24 C32         28.6630    30.4560   132.2930 ca         1 A1A      -0.109000
     25 C33         28.5610    29.9470   130.9870 ca         1 A1A      -0.111000
     26 C34         27.3110    29.5400   130.4900 ca         1 A1A      -0.109000
     27 C35         26.1640    29.6430   131.2970 ca         1 A1A      -0.108500
     28 C40         20.7980    31.3710   136.7500 c3         1 A1A       0.261900
     29 C41         20.3970    32.2670   137.8860 cc         1 A1A      -0.247300
     30 C42         20.6260    33.6200   138.0080 cd         1 A1A       0.283900
     31 C44         19.5560    33.2580   139.9210 cc         1 A1A       0.411300
     32 C46         21.2260    34.5980   132.3860 c3         1 A1A      -0.043100
     33 C47         20.0420    34.9540   133.2780 ca         1 A1A      -0.082300
     34 C48         19.5000    33.9840   134.1440 ca         1 A1A      -0.102000
     35 C49         18.4330    34.3100   134.9980 ca         1 A1A      -0.102500
     36 C50         17.8970    35.6090   134.9870 ca         1 A1A      -0.100000
     37 C51         18.4290    36.5800   134.1220 ca         1 A1A      -0.102500
     38 C52         19.4990    36.2540   133.2700 ca         1 A1A      -0.102000
     39 C53         24.0820    33.7870   139.3530 cc         1 A1A      -0.238000
     40 N05         25.9240    34.7270   138.2840 nd         1 A1A      -0.636000
     41 N08         23.3690    36.9050   139.4510 n          1 A1A      -0.421800
     42 N12         24.0140    36.9670   137.1840 ns         1 A1A      -0.476900
     43 N16         25.6080    40.1310   135.7030 n3         1 A1A      -0.811600
     44 N24         22.8870    35.6480   133.9170 ns         1 A1A      -0.483900
     45 N36         23.7270    31.9350   134.8430 ns         1 A1A      -0.493900
     46 N43         20.1430    34.1900   139.1790 nd         1 A1A      -0.636000
     47 O11         21.9980    37.7880   137.8240 o          1 A1A      -0.637100
     48 O19         26.5600    38.6510   137.8440 os         1 A1A      -0.454000
     49 O23         23.7100    34.6220   135.7660 o          1 A1A      -0.633100
     50 O38         22.1280    30.2920   134.5800 o          1 A1A      -0.556000
     51 O39         22.0390    31.8700   136.2430 os         1 A1A      -0.455100
     52 S45         19.5430    31.6410   139.2680 ss         1 A1A      -0.005400
     53 S54         24.6390    32.4500   138.3910 ss         1 A1A      -0.055400
     54 H1          27.8810    33.5650   134.8930 hc         1 A1A       0.041367
     55 H2          26.3010    34.3300   135.1280 hc         1 A1A       0.041367
     56 H3          27.7040    34.8960   136.0560 hc         1 A1A       0.041367
     57 H4          26.4260    32.1200   136.2600 hc         1 A1A       0.052700
     58 H5          27.9320    31.6950   138.1810 hc         1 A1A       0.041367
     59 H6          28.8550    32.0280   136.7030 hc         1 A1A       0.041367
     60 H7          28.6950    33.2830   137.9530 hc         1 A1A       0.041367
     61 H8          25.4830    36.9100   139.5530 h1         1 A1A       0.075200
     62 H9          24.7030    36.1080   140.9100 h1         1 A1A       0.075200
     63 H10         22.7170    36.7210   141.4770 h1         1 A1A       0.046700
     64 H11         22.2400    38.2320   140.6540 h1         1 A1A       0.046700
     65 H12         21.4210    36.6950   140.2550 h1         1 A1A       0.046700
     66 H13         22.9700    37.7160   135.5050 h1         1 A1A       0.080700
     67 H14         25.2070    37.1460   134.0650 hc         1 A1A       0.053700
     68 H15         26.0050    37.3790   135.5860 hc         1 A1A       0.053700
     69 H16         24.0130    39.4380   134.4790 h1         1 A1A       0.046200
     70 H17         25.6030    39.3050   133.7710 h1         1 A1A       0.046200
     71 H18         23.8780    39.7980   136.9350 h1         1 A1A       0.045450
     72 H19         24.6810    41.3320   137.2100 h1         1 A1A       0.045450
     73 H20         26.1840    40.4790   138.7510 h1         1 A1A       0.045450
     74 H21         24.9080    39.2650   138.9650 h1         1 A1A       0.045450
     75 H22         28.1240    38.2880   136.5300 h1         1 A1A       0.045450
     76 H23         28.3660    39.6710   137.6150 h1         1 A1A       0.045450
     77 H24         27.6060    39.8880   134.9300 h1         1 A1A       0.045450
     78 H25         27.4280    41.1320   136.1540 h1         1 A1A       0.045450
     79 H26         22.2700    33.6830   133.9730 h1         1 A1A       0.077700
     80 H27         24.6580    34.3130   132.7680 hc         1 A1A       0.044700
     81 H28         23.6380    34.2390   131.3530 hc         1 A1A       0.044700
     82 H29         22.9180    31.8530   132.1980 hc         1 A1A       0.060700
     83 H30         24.5170    32.0780   131.5120 hc         1 A1A       0.060700
     84 H31         25.4630    32.3350   133.8340 h1         1 A1A       0.050700
     85 H32         24.1990    29.6720   133.0790 hc         1 A1A       0.068200
     86 H33         25.2450    29.8610   134.4720 hc         1 A1A       0.068200
     87 H34         27.6060    30.9530   134.1090 ha         1 A1A       0.112500
     88 H35         29.6300    30.7710   132.6800 ha         1 A1A       0.112500
     89 H36         29.4480    29.8670   130.3630 ha         1 A1A       0.112000
     90 H37         27.2310    29.1450   129.4790 ha         1 A1A       0.112500
     91 H38         25.2010    29.3280   130.9010 ha         1 A1A       0.112500
     92 H39         20.0190    31.3880   135.9770 h1         1 A1A       0.062700
     93 H40         20.9100    30.3390   137.1080 h1         1 A1A       0.062700
     94 H41         21.1380    34.2430   137.2840 h4         1 A1A       0.046100
     95 H42         19.0960    33.4400   140.8840 h5         1 A1A       0.054100
     96 H43         21.3830    35.3650   131.6170 hc         1 A1A       0.053700
     97 H44         21.0130    33.6650   131.8490 hc         1 A1A       0.053700
     98 H45         19.9110    32.9780   134.1580 ha         1 A1A       0.108000
     99 H46         18.0230    33.5580   135.6690 ha         1 A1A       0.108000
    100 H47         17.0710    35.8620   135.6490 ha         1 A1A       0.110000
    101 H48         18.0150    37.5850   134.1140 ha         1 A1A       0.108000
    102 H49         19.9090    37.0150   132.6090 ha         1 A1A       0.108000
    103 H50         23.2010    33.6820   139.9720 h4         1 A1A       0.183000
    104 H51         24.8430    36.4930   137.5240 hn         1 A1A       0.313500
    105 H53         22.7080    36.5400   133.4730 hn         1 A1A       0.318500
    106 H54         23.8670    32.7830   135.3890 hn         1 A1A       0.343500
    107 C37         22.5970    31.2480   135.1760 c          1 A1A       0.638100
@<TRIPOS>BOND
     1     1     2 1   
     2     1    54 1   
     3     1    55 1   
     4     1    56 1   
     5     2     3 1   
     6     2     4 1   
     7     2    57 1   
     8     3    58 1   
     9     3    59 1   
    10     3    60 1   
    11     4    40 2   
    12     4    53 1   
    13     5     6 1   
    14     5    39 2   
    15     5    40 1   
    16     6    41 1   
    17     6    61 1   
    18     6    62 1   
    19     7    41 1   
    20     7    63 1   
    21     7    64 1   
    22     7    65 1   
    23     8    41 1   
    24     8    42 1   
    25     8    47 2   
    26     9    10 1   
    27     9    16 1   
    28     9    42 1   
    29     9    66 1   
    30    10    11 1   
    31    10    67 1   
    32    10    68 1   
    33    11    43 1   
    34    11    69 1   
    35    11    70 1   
    36    12    13 1   
    37    12    43 1   
    38    12    71 1   
    39    12    72 1   
    40    13    48 1   
    41    13    73 1   
    42    13    74 1   
    43    14    15 1   
    44    14    48 1   
    45    14    75 1   
    46    14    76 1   
    47    15    43 1   
    48    15    77 1   
    49    15    78 1   
    50    16    44 1   
    51    16    49 2   
    52    17    18 1   
    53    17    32 1   
    54    17    44 1   
    55    17    79 1   
    56    18    19 1   
    57    18    80 1   
    58    18    81 1   
    59    19    20 1   
    60    19    82 1   
    61    19    83 1   
    62    20    21 1   
    63    20    45 1   
    64    20    84 1   
    65    21    22 1   
    66    21    85 1   
    67    21    86 1   
    68    22    23 ar  
    69    22    27 ar  
    70    23    24 ar  
    71    23    87 1   
    72    24    25 ar  
    73    24    88 1   
    74    25    26 ar  
    75    25    89 1   
    76    26    27 ar  
    77    26    90 1   
    78    27    91 1   
    79    28    29 1   
    80    28    51 1   
    81    28    92 1   
    82    28    93 1   
    83    29    30 2   
    84    29    52 1   
    85    30    46 1   
    86    30    94 1   
    87    31    46 2   
    88    31    52 1   
    89    31    95 1   
    90    32    33 1   
    91    32    96 1   
    92    32    97 1   
    93    33    34 ar  
    94    33    38 ar  
    95    34    35 ar  
    96    34    98 1   
    97    35    36 ar  
    98    35    99 1   
    99    36    37 ar  
   100    36   100 1   
   101    37    38 ar  
   102    37   101 1   
   103    38   102 1   
   104    39    53 1   
   105    39   103 1   
   106    42   104 1   
   107    44   105 1   
   108    45   106 1   
   109    45   107 1   
   110    50   107 2   
   111    51   107 1   
@<TRIPOS>SUBSTRUCTURE
     1 A1A         1 TEMP              0 ****  ****    0 ROOT
