@<TRIPOS>MOLECULE
A1A
   79    83     1     0     0
SMALL
abcg2


@<TRIPOS>ATOM
      1 C14        123.9980   117.2160   123.5000 ca         1 A1A      -0.139000
      2 C13        125.0030   116.4120   124.0290 cp         1 A1A      -0.062000
      3 C12        124.7750   115.6280   125.2650 cp         1 A1A       0.026000
      4 C11        124.3440   114.1450   127.6120 ca         1 A1A      -0.101000
      5 C10        123.7960   113.7380   126.4300 ca         1 A1A      -0.074000
      6 C15        124.2640   117.9420   122.3480 ca         1 A1A       0.090100
      7 C17        122.0490   118.7810   122.1680 c3         1 A1A       0.208900
      8 C01        126.6390   107.0180   123.3740 c3         1 A1A       0.096300
      9 C03        125.0410   108.8220   123.7510 c          1 A1A       0.591100
     10 C04        124.4640   109.7850   124.7930 c3         1 A1A       0.046700
     11 N05        124.1410   111.0470   124.1830 ns         1 A1A      -0.487900
     12 C06        125.0800   111.8080   123.6070 c          1 A1A       0.606100
     13 C07        124.5980   113.0840   122.9390 c3         1 A1A      -0.036400
     14 C09        124.0080   114.4830   125.2490 ca         1 A1A      -0.106000
     15 O16        123.3990   118.7580   121.7260 os         1 A1A      -0.334100
     16 C18        121.2730   119.6570   121.2300 ca         1 A1A      -0.096300
     17 C19        121.2870   119.4090   119.8580 ca         1 A1A      -0.087000
     18 C20        120.5600   120.2120   118.9930 ca         1 A1A      -0.113500
     19 C21        119.8030   121.2680   119.4880 ca         1 A1A      -0.100000
     20 C22        119.7800   121.5170   120.8520 ca         1 A1A      -0.113500
     21 C23        120.5180   120.7170   121.7170 ca         1 A1A      -0.087000
     22 C24        125.5360   117.8290   121.7760 ca         1 A1A       0.310900
     23 N25        126.4870   117.0660   122.2800 nb         1 A1A      -0.636000
     24 C26        126.2300   116.3700   123.3830 ca         1 A1A       0.301900
     25 C27        125.3570   116.0660   126.4900 ca         1 A1A      -0.037000
     26 C28        125.1340   115.3130   127.6740 ca         1 A1A      -0.019000
     27 C29        125.7010   115.7500   128.8930 ca         1 A1A      -0.106000
     28 C30        126.4550   116.8890   128.9450 ca         1 A1A      -0.095000
     29 C31        126.6700   117.6440   127.7750 ca         1 A1A      -0.110000
     30 C32        126.1360   117.2460   126.5800 ca         1 A1A      -0.089000
     31 O33        126.2590   111.4920   123.5690 o          1 A1A      -0.600100
     32 C34        123.2030   109.1570   125.4020 c3         1 A1A      -0.044100
     33 C35        122.5850   110.0300   126.4610 ca         1 A1A      -0.055300
     34 C36        121.4350   110.7670   126.1780 ca         1 A1A      -0.197000
     35 C37        120.8890   111.6270   127.1270 ca         1 A1A       0.143100
     36 O38        119.7980   112.3860   126.9060 os         1 A1A      -0.339100
     37 C39        119.2390   112.4110   125.6090 c3         1 A1A       0.144900
     38 C40        121.4780   111.7560   128.3930 ca         1 A1A      -0.105300
     39 C41        120.9110   112.7000   129.4110 c3         1 A1A      -0.035800
     40 C42        122.6120   111.0010   128.6590 ca         1 A1A      -0.082000
     41 C43        123.1710   110.1510   127.7120 ca         1 A1A      -0.140000
     42 H1         123.0380   117.2580   123.9980 ha         1 A1A       0.130000
     43 H2         124.1750   113.5700   128.5150 ha         1 A1A       0.120000
     44 H3         123.1950   112.8410   126.3910 ha         1 A1A       0.133000
     45 H4         121.9830   119.1660   123.1910 h1         1 A1A       0.044700
     46 H5         121.6410   117.7640   122.1690 h1         1 A1A       0.044700
     47 H6         127.3830   106.4970   123.9690 h1         1 A1A       0.040700
     48 H7         125.9070   106.2890   123.0260 h1         1 A1A       0.040700
     49 H8         127.1350   107.4490   122.5040 h1         1 A1A       0.040700
     50 H9         126.3860   108.1740   125.1260 hn         1 A1A       0.316500
     51 H10        125.1970   109.9430   125.5910 h1         1 A1A       0.063700
     52 H11        123.1850   111.3690   124.1810 hn         1 A1A       0.339500
     53 H12        124.2400   112.8400   121.9350 h1         1 A1A       0.103700
     54 H13        125.4400   113.7660   122.8290 h1         1 A1A       0.103700
     55 H14        121.8680   118.5850   119.4620 ha         1 A1A       0.116000
     56 H15        120.5810   120.0110   117.9300 ha         1 A1A       0.115000
     57 H16        119.2340   121.8920   118.8110 ha         1 A1A       0.114000
     58 H17        119.1950   122.3380   121.2460 ha         1 A1A       0.115000
     59 H18        120.5040   120.9230   122.7810 ha         1 A1A       0.116000
     60 H19        125.7680   118.3880   120.8750 h4         1 A1A       0.034100
     61 H20        127.0320   115.7510   123.7710 h4         1 A1A       0.031100
     62 H21        125.5260   115.1650   129.7880 ha         1 A1A       0.115000
     63 H22        126.8860   117.2160   129.8820 ha         1 A1A       0.115000
     64 H23        127.2620   118.5490   127.8230 ha         1 A1A       0.117000
     65 H24        126.3070   117.8450   125.6960 ha         1 A1A       0.124000
     66 H25        122.4810   108.9610   124.6060 hc         1 A1A       0.066700
     67 H26        123.4820   108.1920   125.8280 hc         1 A1A       0.066700
     68 H27        120.9780   110.6580   125.2020 ha         1 A1A       0.120000
     69 H28        118.4220   113.1280   125.6380 h1         1 A1A       0.043033
     70 H29        119.9670   112.7350   124.8590 h1         1 A1A       0.043033
     71 H30        118.8390   111.4370   125.3140 h1         1 A1A       0.043033
     72 H31        119.8690   112.4760   129.6430 hc         1 A1A       0.044700
     73 H32        121.4770   112.6490   130.3390 hc         1 A1A       0.044700
     74 H33        120.9450   113.7340   129.0600 hc         1 A1A       0.044700
     75 H34        123.0780   111.0890   129.6340 ha         1 A1A       0.114000
     76 H35        124.0630   109.5860   127.9550 ha         1 A1A       0.114000
     77 S08        123.2180   113.9300   123.7540 ss         1 A1A      -0.223000
     78 O44        124.5820   108.7530   122.6220 o          1 A1A      -0.595100
     79 N02        126.0250   108.0330   124.1970 ns         1 A1A      -0.499900
@<TRIPOS>BOND
     1     1     2 ar  
     2     1     6 ar  
     3     1    42 1   
     4     2     3 1   
     5     2    24 ar  
     6     3    14 ar  
     7     3    25 ar  
     8     4     5 ar  
     9     4    26 ar  
    10     4    43 1   
    11     5    14 ar  
    12     5    44 1   
    13     6    15 1   
    14     6    22 ar  
    15     7    15 1   
    16     7    16 1   
    17     7    45 1   
    18     7    46 1   
    19     8    47 1   
    20     8    48 1   
    21     8    49 1   
    22     8    79 1   
    23     9    10 1   
    24     9    78 2   
    25     9    79 1   
    26    10    11 1   
    27    10    32 1   
    28    10    51 1   
    29    11    12 1   
    30    11    52 1   
    31    12    13 1   
    32    12    31 2   
    33    13    53 1   
    34    13    54 1   
    35    13    77 1   
    36    14    77 1   
    37    16    17 ar  
    38    16    21 ar  
    39    17    18 ar  
    40    17    55 1   
    41    18    19 ar  
    42    18    56 1   
    43    19    20 ar  
    44    19    57 1   
    45    20    21 ar  
    46    20    58 1   
    47    21    59 1   
    48    22    23 ar  
    49    22    60 1   
    50    23    24 ar  
    51    24    61 1   
    52    25    26 ar  
    53    25    30 ar  
    54    26    27 ar  
    55    27    28 ar  
    56    27    62 1   
    57    28    29 ar  
    58    28    63 1   
    59    29    30 ar  
    60    29    64 1   
    61    30    65 1   
    62    32    33 1   
    63    32    66 1   
    64    32    67 1   
    65    33    34 ar  
    66    33    41 ar  
    67    34    35 ar  
    68    34    68 1   
    69    35    36 1   
    70    35    38 ar  
    71    36    37 1   
    72    37    69 1   
    73    37    70 1   
    74    37    71 1   
    75    38    39 1   
    76    38    40 ar  
    77    39    72 1   
    78    39    73 1   
    79    39    74 1   
    80    40    41 ar  
    81    40    75 1   
    82    41    76 1   
    83    50    79 1   
@<TRIPOS>SUBSTRUCTURE
     1 A1A         1 TEMP              0 ****  ****    0 ROOT
