@<TRIPOS>MOLECULE
A1A
   62    64     1     0     0
SMALL
abcg2


@<TRIPOS>ATOM
      1 C5           0.7550   -10.5170    31.5900 c3         1 A1A       0.178000
      2 C6           0.3010    -9.0870    31.7990 ca         1 A1A      -0.107300
      3 C7          -1.0410    -8.7360    31.7240 ca         1 A1A      -0.069000
      4 C8          -1.4240    -7.4130    31.8810 ca         1 A1A       0.067000
      5 C10         -0.4660    -6.4390    32.1060 ca         1 A1A       0.183000
      6 C13          1.2470    -8.0940    32.0300 ca         1 A1A      -0.066000
      7 C20         -2.9200   -13.9320    34.8930 cc         1 A1A      -0.159800
      8 C21         -3.5550   -14.7870    35.8570 ce         1 A1A      -0.053200
      9 C22         -4.7860   -15.3080    35.7730 cf         1 A1A      -0.318200
     10 C26         -8.3890   -16.5240    38.2910 c3         1 A1A       0.133600
     11 C28         -8.6490   -14.6240    39.6240 c3         1 A1A       0.144900
     12 C1          -1.4910   -12.6170    33.7390 cd         1 A1A      -0.202600
     13 O3           0.3830   -11.2720    34.2480 o          1 A1A      -0.578100
     14 N4          -0.1980   -11.4850    32.0790 ns         1 A1A      -0.512900
     15 CL9         -3.0860    -6.9590    31.8030 cl         1 A1A      -0.177000
     16 F11         -0.8480    -5.1680    32.2560 f          1 A1A      -0.161000
     17 C12          0.8710    -6.7690    32.1820 ca         1 A1A      -0.142000
     18 C14          1.0210   -10.7840    30.1120 c3         1 A1A      -0.178400
     19 O16          2.5580   -12.5390    30.6670 o          1 A1A      -0.584100
     20 N17          1.3380   -12.7760    28.7850 nt         1 A1A      -0.613000
     21 C18         -2.6400   -12.8000    32.9940 cc         1 A1A      -0.157000
     22 N19         -3.4750   -13.5850    33.6920 na         1 A1A      -0.082000
     23 C23         -5.3240   -16.1570    36.8600 c          1 A1A       0.614300
     24 N24         -6.5710   -16.6120    36.6290 ns         1 A1A      -0.501900
     25 C25         -7.3510   -17.3690    37.5770 c3         1 A1A       0.101000
     26 O27         -7.7480   -15.5290    39.0420 os         1 A1A      -0.437000
     27 O29         -4.6800   -16.4260    37.8670 o          1 A1A      -0.591100
     28 C30         -1.6730   -13.3280    34.9550 cd         1 A1A      -0.004000
     29 C31         -0.7470   -13.4280    36.0870 ca         1 A1A      -0.054000
     30 C32          0.5380   -13.9340    35.9400 ca         1 A1A       0.216000
     31 F33          0.9360   -14.3370    34.7280 f          1 A1A      -0.166000
     32 C34          1.4270   -14.0600    36.9860 ca         1 A1A      -0.151000
     33 C35          1.0100   -13.6600    38.2470 ca         1 A1A       0.150000
     34 CL36         2.1060   -13.8000    39.5770 cl         1 A1A      -0.196000
     35 C37         -0.2610   -13.1510    38.4540 ca         1 A1A      -0.122000
     36 C38         -1.1210   -13.0390    37.3720 ca         1 A1A      -0.061000
     37 H1           1.6930   -10.6520    32.1320 h1         1 A1A       0.107700
     38 H2          -1.8010    -9.4880    31.5510 ha         1 A1A       0.123000
     39 H3           2.2960    -8.3560    32.0980 ha         1 A1A       0.128000
     40 H4          -2.9610   -15.0190    36.7340 ha         1 A1A       0.220000
     41 H5          -5.4310   -15.1130    34.9230 ha         1 A1A       0.160000
     42 H6          -9.0700   -16.0780    37.5500 h1         1 A1A       0.021200
     43 H7          -9.0000   -17.1780    38.9290 h1         1 A1A       0.021200
     44 H8          -8.0740   -13.8840    40.1780 h1         1 A1A       0.028367
     45 H9          -9.2530   -14.1010    38.8720 h1         1 A1A       0.028367
     46 H10         -9.3390   -15.1170    40.3210 h1         1 A1A       0.028367
     47 H11         -0.8040   -11.9340    31.4100 hn         1 A1A       0.306500
     48 H12          1.6080    -5.9970    32.3670 ha         1 A1A       0.138000
     49 H13          1.6830   -10.0050    29.7260 hc         1 A1A       0.065200
     50 H14          0.0940   -10.7110    29.5370 hc         1 A1A       0.065200
     51 H15          1.7840   -13.6430    28.5310 hn         1 A1A       0.313500
     52 H16          0.6390   -12.4140    28.1610 hn         1 A1A       0.313500
     53 H17         -2.9300   -12.4020    32.0340 h4         1 A1A       0.145000
     54 H18         -4.3880   -13.8640    33.3670 hn         1 A1A       0.351000
     55 H19         -7.0380   -16.3210    35.7850 hn         1 A1A       0.303500
     56 H20         -7.8680   -18.1740    37.0510 h1         1 A1A       0.066200
     57 H21         -6.6780   -17.8350    38.2950 h1         1 A1A       0.066200
     58 H22          2.4160   -14.4650    36.8190 ha         1 A1A       0.147000
     59 H23         -0.5790   -12.8380    39.4380 ha         1 A1A       0.134000
     60 H24         -2.1090   -12.6240    37.5270 ha         1 A1A       0.124000
     61 C15          1.7110   -12.1200    29.8930 c          1 A1A       0.601100
     62 C2          -0.3560   -11.7440    33.3960 c          1 A1A       0.649700
@<TRIPOS>BOND
     1     1     2 1   
     2     1    14 1   
     3     1    18 1   
     4     1    37 1   
     5     2     3 ar  
     6     2     6 ar  
     7     3     4 ar  
     8     3    38 1   
     9     4     5 ar  
    10     4    15 1   
    11     5    16 1   
    12     5    17 ar  
    13     6    17 ar  
    14     6    39 1   
    15     7     8 1   
    16     7    22 1   
    17     7    28 2   
    18     8     9 2   
    19     8    40 1   
    20     9    23 1   
    21     9    41 1   
    22    10    25 1   
    23    10    26 1   
    24    10    42 1   
    25    10    43 1   
    26    11    26 1   
    27    11    44 1   
    28    11    45 1   
    29    11    46 1   
    30    12    21 2   
    31    12    28 1   
    32    12    62 1   
    33    13    62 2   
    34    14    47 1   
    35    14    62 1   
    36    17    48 1   
    37    18    49 1   
    38    18    50 1   
    39    18    61 1   
    40    19    61 2   
    41    20    51 1   
    42    20    52 1   
    43    20    61 1   
    44    21    22 1   
    45    21    53 1   
    46    22    54 1   
    47    23    24 1   
    48    23    27 2   
    49    24    25 1   
    50    24    55 1   
    51    25    56 1   
    52    25    57 1   
    53    28    29 1   
    54    29    30 ar  
    55    29    36 ar  
    56    30    31 1   
    57    30    32 ar  
    58    32    33 ar  
    59    32    58 1   
    60    33    34 1   
    61    33    35 ar  
    62    35    36 ar  
    63    35    59 1   
    64    36    60 1   
@<TRIPOS>SUBSTRUCTURE
     1 A1A         1 TEMP              0 ****  ****    0 ROOT
