@<TRIPOS>MOLECULE
A1A
   21    22     1     0     0
SMALL
abcg2


@<TRIPOS>ATOM
      1 N1          15.1840     9.3890    15.1070 na         1 A1A       0.006800
      2 C4          14.8000    10.3340    12.8660 ca         1 A1A       0.034000
      3 C5          14.7390    11.6550    13.3200 ca         1 A1A      -0.161000
      4 C6          14.4970    12.6760    12.4190 ca         1 A1A       0.339400
      5 C7          14.3780    11.2370    10.6810 ca         1 A1A       0.339400
      6 C8          14.6100    10.1420    11.4960 ca         1 A1A      -0.161000
      7 N           15.4020     8.2680    15.7660 nc         1 A1A      -0.506800
      8 C1          15.1930     7.8500    13.5550 cd         1 A1A      -0.162300
      9 C2          15.4110     7.3270    14.8390 cd         1 A1A       0.231900
     10 C3          15.0460     9.2170    13.7700 cc         1 A1A      -0.111000
     11 N2          14.3170    12.4880    11.1170 nb         1 A1A      -0.659000
     12 H           15.1240    10.2510    15.6270 hn         1 A1A       0.373000
     13 H5          14.8770    11.9160    14.3610 ha         1 A1A       0.122000
     14 H6          14.4480    13.6990    12.7750 h4         1 A1A       0.020600
     15 H7          14.2310    11.0860     9.6170 h4         1 A1A       0.020600
     16 H8          14.6380     9.1600    11.0490 ha         1 A1A       0.122000
     17 H2          14.1760     7.1140    11.8000 hc         1 A1A       0.041700
     18 H3          15.9030     7.3700    11.5750 hc         1 A1A       0.041700
     19 H1          15.3300     6.0020    12.5150 hc         1 A1A       0.041700
     20 H4          15.5750     6.2930    15.1040 h4         1 A1A       0.038100
     21 C           15.1460     7.0530    12.2950 c3         1 A1A      -0.012800
@<TRIPOS>BOND
     1     1     7 1   
     2     1    10 1   
     3     1    12 1   
     4     2     3 ar  
     5     2     6 ar  
     6     2    10 1   
     7     3     4 ar  
     8     3    13 1   
     9     4    11 ar  
    10     4    14 1   
    11     5     6 ar  
    12     5    11 ar  
    13     5    15 1   
    14     6    16 1   
    15     7     9 2   
    16     8     9 1   
    17     8    10 2   
    18     8    21 1   
    19     9    20 1   
    20    17    21 1   
    21    18    21 1   
    22    19    21 1   
@<TRIPOS>SUBSTRUCTURE
     1 A1A         1 TEMP              0 ****  ****    0 ROOT
