@<TRIPOS>MOLECULE
A1A
   41    43     1     0     0
SMALL
abcg2


@<TRIPOS>ATOM
      1 C1X        146.7940   146.4700   155.9670 c          1 A1A       0.727200
      2 C2X        146.7690   146.5430   154.4380 ce         1 A1A       0.002400
      3 C3X        147.1800   145.5960   153.5800 c2         1 A1A      -0.222400
      4 C4X        145.7120   147.8980   152.5670 cy         1 A1A       0.197700
      5 C5X        146.3320   149.0310   154.1870 c          1 A1A       0.578000
      6 C6X        147.6950   144.2490   153.9930 c3         1 A1A      -0.012900
      7 C7X        147.1100   145.7210   152.0760 c6         1 A1A       0.130800
      8 C8X        145.6460   149.4160   152.8700 cy         1 A1A       0.005700
      9 N1X        146.1790   147.7030   153.9190 nj         1 A1A      -0.279000
     10 N2X        146.3560   150.3330   152.0480 ns         1 A1A      -0.477900
     11 N3X        145.9870   152.6110   149.2310 n8         1 A1A      -0.979200
     12 O1X        147.7630   145.8980   156.4930 o          1 A1A      -0.693000
     13 O2X        145.8210   147.0010   156.5280 o          1 A1A      -0.693000
     14 O3X        146.8590   149.6430   155.0770 o          1 A1A      -0.478000
     15 O4X        144.6190   150.7330   150.6700 o          1 A1A      -0.581100
     16 S1X        146.9980   147.4040   151.4010 ss         1 A1A      -0.498000
     17 C10X       146.7380   151.7990   150.1630 c3         1 A1A       0.142800
     18 C11X       147.7080   150.9020   149.4240 ca         1 A1A      -0.135300
     19 C12X       147.2630   150.0580   148.4070 ca         1 A1A      -0.045500
     20 C13X       149.0580   150.8830   149.7470 ca         1 A1A      -0.045500
     21 C14X       148.1360   149.2180   147.7400 ca         1 A1A      -0.176000
     22 C15X       149.9470   150.0470   149.0860 ca         1 A1A      -0.176000
     23 C16X       149.4900   149.2060   148.0780 ca         1 A1A       0.146100
     24 H1X        144.7690   147.3960   152.3450 h2         1 A1A       0.096700
     25 H4X        147.5340   144.0360   155.0440 hc         1 A1A       0.030700
     26 H3X        147.2080   143.4700   153.4010 hc         1 A1A       0.030700
     27 H2X        148.7660   144.1680   153.7910 hc         1 A1A       0.030700
     28 H5X        146.2800   145.1210   151.6920 h1         1 A1A       0.054700
     29 H6X        148.0180   145.2940   151.6440 h1         1 A1A       0.054700
     30 H7X        144.6150   149.7440   153.0120 h1         1 A1A       0.103700
     31 H8X        147.3400   150.4760   152.2180 hn         1 A1A       0.329500
     32 H16X       151.2060   148.4390   147.7130 ho         1 A1A       0.461000
     33 H9X        147.3170   152.3880   150.8910 h1         1 A1A       0.027700
     34 H12X       146.2160   150.0530   148.1300 ha         1 A1A       0.122500
     35 H13X       149.4330   151.5340   150.5290 ha         1 A1A       0.122500
     36 H14X       147.7740   148.5660   146.9550 ha         1 A1A       0.118000
     37 H15X       150.9970   150.0580   149.3570 ha         1 A1A       0.118000
     38 C9X        145.7830   150.9150   150.9690 c          1 A1A       0.603100
     39 H10X       145.3710   153.2400   149.7310 hn         1 A1A       0.400500
     40 O5X        150.2980   148.3710   147.3950 oh         1 A1A      -0.538100
     41 H11X       146.6340   153.1950   148.7160 hn         1 A1A       0.400500
@<TRIPOS>BOND
     1     1     2 1   
     2     1    12 1   
     3     1    13 1   
     4     2     3 2   
     5     2     9 1   
     6     3     6 1   
     7     3     7 1   
     8     4     8 1   
     9     4     9 1   
    10     4    16 1   
    11     4    24 1   
    12     5     8 1   
    13     5     9 1   
    14     5    14 2   
    15     6    25 1   
    16     6    26 1   
    17     6    27 1   
    18     7    16 1   
    19     7    28 1   
    20     7    29 1   
    21     8    10 1   
    22     8    30 1   
    23    10    31 1   
    24    10    38 1   
    25    11    17 1   
    26    11    39 1   
    27    11    41 1   
    28    15    38 2   
    29    17    18 1   
    30    17    33 1   
    31    17    38 1   
    32    18    19 ar  
    33    18    20 ar  
    34    19    21 ar  
    35    19    34 1   
    36    20    22 ar  
    37    20    35 1   
    38    21    23 ar  
    39    21    36 1   
    40    22    23 ar  
    41    22    37 1   
    42    23    40 1   
    43    32    40 1   
@<TRIPOS>SUBSTRUCTURE
     1 A1A         1 TEMP              0 ****  ****    0 ROOT
