@<TRIPOS>MOLECULE
A1A
   54    57     1     0     0
SMALL
abcg2


@<TRIPOS>ATOM
      1 O1           0.3570   -11.1420    34.3470 o          1 A1A      -0.583100
      2 C2          -0.2700   -11.6670    33.4370 c          1 A1A       0.647700
      3 N3           0.0360   -11.4580    32.1380 ns         1 A1A      -0.511900
      4 C4           1.0260   -10.4880    31.7290 c3         1 A1A       0.179000
      5 C5           0.5380    -9.0650    31.8980 ca         1 A1A      -0.107300
      6 C6           1.3990    -8.0860    32.3780 ca         1 A1A      -0.060000
      7 C7           0.9820    -6.7700    32.5110 ca         1 A1A      -0.143000
      8 C8          -0.3100    -6.4380    32.1620 ca         1 A1A       0.183000
      9 F9          -0.7330    -5.1780    32.2900 f          1 A1A      -0.161000
     10 C10         -1.1850    -7.3990    31.6800 ca         1 A1A       0.065000
     11 CL11        -2.7920    -6.9450    31.2550 cl         1 A1A      -0.178000
     12 C12         -0.7600    -8.7100    31.5470 ca         1 A1A      -0.071000
     13 C13          1.4230   -10.7540    30.2810 c3         1 A1A      -0.177400
     14 C14          2.1440   -12.0810    30.1200 c          1 A1A       0.603100
     15 N15          1.8400   -12.7620    29.0060 nt         1 A1A      -0.613000
     16 O16          2.9580   -12.4720    30.9420 o          1 A1A      -0.585100
     17 C17         -1.4180   -12.5540    33.6850 cc         1 A1A      -0.192600
     18 C18         -2.5550   -12.6530    32.9170 cd         1 A1A      -0.173000
     19 N19         -3.4130   -13.4820    33.5510 na         1 A1A      -0.095000
     20 C20         -2.8710   -13.9370    34.7180 cd         1 A1A      -0.060000
     21 C21         -3.5730   -14.8740    35.5740 cd         1 A1A      -0.151000
     22 C22         -4.9340   -14.9590    35.8030 cc         1 A1A      -0.170000
     23 N23         -5.1250   -15.9820    36.6500 na         1 A1A       0.136800
     24 C24         -6.3770   -16.4420    37.2010 c3         1 A1A       0.072900
     25 N25         -3.9860   -16.5720    36.9980 nc         1 A1A      -0.519800
     26 C26         -3.0390   -15.9180    36.3560 cd         1 A1A       0.271900
     27 C27         -1.6220   -13.3630    34.8420 cc         1 A1A      -0.045000
     28 C28         -0.7000   -13.5670    35.9620 ca         1 A1A      -0.036000
     29 C29         -1.1000   -13.3750    37.2840 ca         1 A1A      -0.063000
     30 C30         -0.2440   -13.5970    38.3510 ca         1 A1A      -0.126000
     31 C31          1.0520   -14.0140    38.0940 ca         1 A1A       0.144000
     32 CL32         2.1420   -14.2940    39.4080 cl         1 A1A      -0.201000
     33 C33          1.4990   -14.2090    36.7960 ca         1 A1A      -0.150000
     34 C34          0.6100   -13.9820    35.7650 ca         1 A1A       0.205000
     35 F35          1.0390   -14.1880    34.5120 f          1 A1A      -0.167000
     36 H1          -0.4910   -11.9410    31.4260 hn         1 A1A       0.309500
     37 H2           1.9130   -10.6140    32.3540 h1         1 A1A       0.104700
     38 H3           2.4100    -8.3510    32.6600 ha         1 A1A       0.130000
     39 H4           1.6500    -6.0080    32.8920 ha         1 A1A       0.138000
     40 H5          -1.4540    -9.4550    31.1780 ha         1 A1A       0.122000
     41 H6           2.1080    -9.9670    29.9550 hc         1 A1A       0.064700
     42 H7           0.5460   -10.6890    29.6310 hc         1 A1A       0.064700
     43 H8           2.3130   -13.6250    28.7910 hn         1 A1A       0.313500
     44 H9           1.1700   -12.4230    28.3380 hn         1 A1A       0.313500
     45 H10         -2.8260   -12.1710    31.9910 h4         1 A1A       0.145000
     46 H11         -4.3150   -13.7520    33.1910 hn         1 A1A       0.348000
     47 H12         -5.7550   -14.3640    35.4360 h4         1 A1A       0.151000
     48 H13         -6.4090   -16.2700    38.2750 h1         1 A1A       0.058700
     49 H14         -7.1900   -15.8970    36.7320 h1         1 A1A       0.058700
     50 H15         -6.5040   -17.5050    37.0040 h1         1 A1A       0.058700
     51 H16         -2.0050   -16.2110    36.4580 h4         1 A1A       0.051100
     52 H17         -2.1100   -13.0400    37.4810 ha         1 A1A       0.124000
     53 H18         -0.5840   -13.4400    39.3650 ha         1 A1A       0.131000
     54 H19          2.5090   -14.5370    36.5870 ha         1 A1A       0.146000
@<TRIPOS>BOND
     1     1     2 2   
     2     2     3 1   
     3     2    17 1   
     4     3     4 1   
     5     3    36 1   
     6     4     5 1   
     7     4    13 1   
     8     4    37 1   
     9     5     6 ar  
    10     5    12 ar  
    11     6     7 ar  
    12     6    38 1   
    13     7     8 ar  
    14     7    39 1   
    15     8     9 1   
    16     8    10 ar  
    17    10    11 1   
    18    10    12 ar  
    19    12    40 1   
    20    13    14 1   
    21    13    41 1   
    22    13    42 1   
    23    14    15 1   
    24    14    16 2   
    25    15    43 1   
    26    15    44 1   
    27    17    18 2   
    28    17    27 1   
    29    18    19 1   
    30    18    45 1   
    31    19    20 1   
    32    19    46 1   
    33    20    21 1   
    34    20    27 2   
    35    21    22 2   
    36    21    26 1   
    37    22    23 1   
    38    22    47 1   
    39    23    24 1   
    40    23    25 1   
    41    24    48 1   
    42    24    49 1   
    43    24    50 1   
    44    25    26 2   
    45    26    51 1   
    46    27    28 1   
    47    28    29 ar  
    48    28    34 ar  
    49    29    30 ar  
    50    29    52 1   
    51    30    31 ar  
    52    30    53 1   
    53    31    32 1   
    54    31    33 ar  
    55    33    34 ar  
    56    33    54 1   
    57    34    35 1   
@<TRIPOS>SUBSTRUCTURE
     1 A1A         1 TEMP              0 ****  ****    0 ROOT
