@<TRIPOS>MOLECULE
A1A
   28    28     1     0     0
SMALL
abcg2


@<TRIPOS>ATOM
      1 N1          15.6880     2.9200    16.1300 n          1 A1A      -0.397800
      2 C4          15.2250    -0.9920    18.6590 ca         1 A1A      -0.213000
      3 C5          14.9950     0.3450    18.3440 ca         1 A1A      -0.007000
      4 C6          15.9710     1.0710    17.6910 ca         1 A1A      -0.220600
      5 C7          15.7810     2.5310    17.4100 c          1 A1A       0.630700
      6 C8          15.5720     4.3400    15.8550 c3         1 A1A       0.095800
      7 N           17.4170    -0.8390    17.7240 nb         1 A1A      -0.762000
      8 C           20.2300     1.5770    15.8160 c3         1 A1A      -0.099100
      9 C1          19.3840     0.5380    16.5120 c3         1 A1A       0.173600
     10 C2          17.1860     0.4190    17.4190 ca         1 A1A       0.613300
     11 C3          16.4490    -1.5320    18.3240 ca         1 A1A       0.390900
     12 C9          15.6740     2.0240    14.9940 c3         1 A1A       0.095800
     13 O1          15.7040     3.3200    18.3440 o          1 A1A      -0.597100
     14 H6          14.4730    -1.5910    19.1530 ha         1 A1A       0.130000
     15 H7          14.0500     0.8110    18.5930 ha         1 A1A       0.131000
     16 H10         15.6270     4.4930    14.7800 h1         1 A1A       0.040367
     17 H8          14.6220     4.7440    16.2090 h1         1 A1A       0.040367
     18 H9          16.3800     4.9020    16.3210 h1         1 A1A       0.040367
     19 H2          21.2000     1.1440    15.5700 hc         1 A1A       0.047033
     20 H1          19.7680     1.9110    14.8860 hc         1 A1A       0.047033
     21 H           20.4020     2.4450    16.4510 hc         1 A1A       0.047033
     22 H4          19.2280    -0.3320    15.8690 h1         1 A1A       0.048700
     23 H3          19.8680     0.1890    17.4270 h1         1 A1A       0.048700
     24 H5          16.6750    -2.5680    18.5500 h4         1 A1A       0.020100
     25 H12         14.8300     2.2640    14.3460 h1         1 A1A       0.040367
     26 H13         16.5890     2.1090    14.4060 h1         1 A1A       0.040367
     27 H11         15.5580     0.9910    15.3080 h1         1 A1A       0.040367
     28 O           18.1290     1.1470    16.8250 os         1 A1A      -0.465300
@<TRIPOS>BOND
     1     1     5 1   
     2     1     6 1   
     3     1    12 1   
     4     2     3 ar  
     5     2    11 ar  
     6     2    14 1   
     7     3     4 ar  
     8     3    15 1   
     9     4     5 1   
    10     4    10 ar  
    11     5    13 2   
    12     6    16 1   
    13     6    17 1   
    14     6    18 1   
    15     7    10 ar  
    16     7    11 ar  
    17     8     9 1   
    18     8    19 1   
    19     8    20 1   
    20     8    21 1   
    21     9    22 1   
    22     9    23 1   
    23     9    28 1   
    24    10    28 1   
    25    11    24 1   
    26    12    25 1   
    27    12    26 1   
    28    12    27 1   
@<TRIPOS>SUBSTRUCTURE
     1 A1A         1 TEMP              0 ****  ****    0 ROOT
