@<TRIPOS>MOLECULE
A1A
   34    35     1     0     0
SMALL
No Charge or Current Charge


@<TRIPOS>ATOM
      1 N1          17.4740     1.1840    17.7220 n7         1 A1A      -0.866400
      2 C4          16.4650    -1.1270    17.5510 c3         1 A1A      -0.105400
      3 C5          17.1150    -1.6780    18.8620 c6         1 A1A      -0.060700
      4 C6          16.2540    -1.3800    20.1250 c6         1 A1A      -0.073400
      5 C7          16.9040    -1.9560    21.4080 c6         1 A1A      -0.073400
      6 C8          17.1700    -3.4740    21.2730 c6         1 A1A      -0.074400
      7 C10         17.3790    -3.2060    18.7420 c6         1 A1A      -0.073400
      8 N           16.1940     1.4460    15.1670 ns         1 A1A      -0.503900
      9 C           15.4740     0.7630    16.1270 c          1 A1A       0.572000
     10 O           14.3050     0.4700    15.9180 o          1 A1A      -0.574000
     11 C1          17.5920     1.9000    15.3110 c6         1 A1A       0.118000
     12 C2          18.3340     1.2500    16.5140 c6         1 A1A       0.144800
     13 C3          16.2020     0.4130    17.4820 c6         1 A1A       0.093500
     14 C9          18.0330    -3.7770    20.0250 c6         1 A1A      -0.073400
     15 H5          17.9920     0.7450    18.4930 hn         1 A1A       0.428000
     16 H8          15.5100    -1.6450    17.3950 hc         1 A1A       0.056200
     17 H7          17.0860    -1.4200    16.6950 hc         1 A1A       0.056200
     18 H9          18.0870    -1.1780    18.9750 hc         1 A1A       0.035700
     19 H10         16.1210    -0.2980    20.2520 hc         1 A1A       0.041450
     20 H11         15.2480    -1.8060    20.0000 hc         1 A1A       0.041450
     21 H12         17.8490    -1.4320    21.6110 hc         1 A1A       0.038200
     22 H13         16.2520    -1.7680    22.2720 hc         1 A1A       0.038200
     23 H14         17.6740    -3.8470    22.1750 hc         1 A1A       0.039700
     24 H15         16.2150    -4.0130    21.2030 hc         1 A1A       0.039700
     25 H18         18.0320    -3.4070    17.8810 hc         1 A1A       0.041450
     26 H19         16.4360    -3.7350    18.5460 hc         1 A1A       0.041450
     27 H           15.6980     1.6650    14.3120 hn         1 A1A       0.314500
     28 H2          18.1370     1.6910    14.3800 h1         1 A1A       0.044200
     29 H1          17.5750     2.9900    15.4500 h1         1 A1A       0.044200
     30 H4          18.6510     0.2340    16.2340 h1         1 A1A       0.042200
     31 H3          19.2450     1.8250    16.7350 h1         1 A1A       0.042200
     32 H6          15.4790     0.6690    18.2710 h1         1 A1A       0.090700
     33 H16         19.0350    -3.3460    20.1530 hc         1 A1A       0.038200
     34 H17         18.1710    -4.8620    19.9220 hc         1 A1A       0.038200
@<TRIPOS>BOND
     1     1    12 1   
     2     1    13 1   
     3     1    15 1   
     4     2     3 1   
     5     2    13 1   
     6     2    16 1   
     7     2    17 1   
     8     3     4 1   
     9     3     7 1   
    10     3    18 1   
    11     4     5 1   
    12     4    19 1   
    13     4    20 1   
    14     5     6 1   
    15     5    21 1   
    16     5    22 1   
    17     6    14 1   
    18     6    23 1   
    19     6    24 1   
    20     7    14 1   
    21     7    25 1   
    22     7    26 1   
    23     8     9 1   
    24     8    11 1   
    25     8    27 1   
    26     9    10 2   
    27     9    13 1   
    28    11    12 1   
    29    11    28 1   
    30    11    29 1   
    31    12    30 1   
    32    12    31 1   
    33    13    32 1   
    34    14    33 1   
    35    14    34 1   
@<TRIPOS>SUBSTRUCTURE
     1 A1A         1 TEMP              0 ****  ****    0 ROOT
