@<TRIPOS>MOLECULE
A1A
   28    28     1     0     0
SMALL
No Charge or Current Charge


@<TRIPOS>ATOM
      1 N1          15.8440     2.9200    16.1290 n          1 A1A      -0.397800
      2 C4          15.2240    -1.0440    18.8050 ca         1 A1A      -0.213000
      3 C5          14.9450     0.2960    18.5060 ca         1 A1A      -0.007000
      4 C6          15.9010     1.0290    17.7800 ca         1 A1A      -0.220600
      5 C7          15.6380     2.4620    17.4520 c          1 A1A       0.630700
      6 C8          15.7340     4.3630    15.8240 c3         1 A1A       0.095800
      7 N           17.3780    -0.8840    17.7240 nb         1 A1A      -0.762000
      8 C           20.1550     1.6920    15.7270 c3         1 A1A      -0.099100
      9 C1          19.3320     0.5760    16.3890 c3         1 A1A       0.173600
     10 C2          17.1130     0.4090    17.4310 ca         1 A1A       0.613300
     11 C3          16.4430    -1.5950    18.3890 ca         1 A1A       0.390900
     12 C9          15.7950     1.9940    14.9740 c3         1 A1A       0.095800
     13 O1          15.2830     3.2330    18.3350 o          1 A1A      -0.597100
     14 H6          14.5100    -1.6530    19.3500 ha         1 A1A       0.130000
     15 H7          14.0060     0.7500    18.8170 ha         1 A1A       0.131000
     16 H10         16.1150     4.5670    14.8150 h1         1 A1A       0.040367
     17 H8          14.6840     4.6750    15.8820 h1         1 A1A       0.040367
     18 H9          16.3240     4.9430    16.5450 h1         1 A1A       0.040367
     19 H2          21.1130     1.2960    15.3700 hc         1 A1A       0.047033
     20 H1          19.6150     2.1130    14.8710 hc         1 A1A       0.047033
     21 H           20.3610     2.4960    16.4430 hc         1 A1A       0.047033
     22 H4          19.1510    -0.2250    15.6600 h1         1 A1A       0.048700
     23 H3          19.8930     0.1600    17.2370 h1         1 A1A       0.048700
     24 H5          16.6860    -2.6350    18.6070 h4         1 A1A       0.020100
     25 H12         15.2390     2.4550    14.1480 h1         1 A1A       0.040367
     26 H13         16.8130     1.7710    14.6330 h1         1 A1A       0.040367
     27 H11         15.2890     1.0580    15.2450 h1         1 A1A       0.040367
     28 O           18.0940     1.1610    16.8270 os         1 A1A      -0.465300
@<TRIPOS>BOND
     1     1     5 1   
     2     1     6 1   
     3     1    12 1   
     4     2     3 ar  
     5     2    11 ar  
     6     2    14 1   
     7     3     4 ar  
     8     3    15 1   
     9     4     5 1   
    10     4    10 ar  
    11     5    13 2   
    12     6    16 1   
    13     6    17 1   
    14     6    18 1   
    15     7    10 ar  
    16     7    11 ar  
    17     8     9 1   
    18     8    19 1   
    19     8    20 1   
    20     8    21 1   
    21     9    22 1   
    22     9    23 1   
    23     9    28 1   
    24    10    28 1   
    25    11    24 1   
    26    12    25 1   
    27    12    26 1   
    28    12    27 1   
@<TRIPOS>SUBSTRUCTURE
     1 A1A         1 TEMP              0 ****  ****    0 ROOT
