@<TRIPOS>MOLECULE
A1A
   21    22     1     0     0
SMALL
No Charge or Current Charge


@<TRIPOS>ATOM
      1 N1          14.7400     9.2810    15.2420 na         1 A1A       0.006800
      2 C4          14.6940    10.2920    12.8810 ca         1 A1A       0.034000
      3 C5          15.1020    11.5990    13.2030 ca         1 A1A      -0.161000
      4 C6          14.9470    12.6270    12.2570 ca         1 A1A       0.339400
      5 C7          14.0000    11.1740    10.7260 ca         1 A1A       0.339400
      6 C8          14.1210    10.0900    11.6120 ca         1 A1A      -0.161000
      7 N           15.0000     8.0710    15.8640 nc         1 A1A      -0.506800
      8 C1          15.2200     7.9210    13.5840 cd         1 A1A      -0.162300
      9 C2          15.2870     7.2780    14.8450 cd         1 A1A       0.231900
     10 C3          14.8360     9.2090    13.8570 cc         1 A1A      -0.111000
     11 N2          14.4060    12.4270    11.0340 nb         1 A1A      -0.659000
     12 H           14.4910    10.1100    15.7810 hn         1 A1A       0.373000
     13 H5          15.5480    11.8240    14.1670 ha         1 A1A       0.122000
     14 H6          15.2650    13.6430    12.4870 h4         1 A1A       0.020600
     15 H7          13.5570    11.0360     9.7410 h4         1 A1A       0.020600
     16 H8          13.7520     9.1160    11.3110 ha         1 A1A       0.122000
     17 H2          14.6530     6.9280    11.7510 hc         1 A1A       0.041700
     18 H3          16.0820     7.9720    11.5990 hc         1 A1A       0.041700
     19 H1          16.2100     6.4060    12.4060 hc         1 A1A       0.041700
     20 H4          15.5570     6.2480    15.0440 h4         1 A1A       0.038100
     21 C           15.5580     7.2750    12.2630 c3         1 A1A      -0.012800
@<TRIPOS>BOND
     1     1     7 1   
     2     1    10 1   
     3     1    12 1   
     4     2     3 ar  
     5     2     6 ar  
     6     2    10 1   
     7     3     4 ar  
     8     3    13 1   
     9     4    11 ar  
    10     4    14 1   
    11     5     6 ar  
    12     5    11 ar  
    13     5    15 1   
    14     6    16 1   
    15     7     9 2   
    16     8     9 1   
    17     8    10 2   
    18     8    21 1   
    19     9    20 1   
    20    17    21 1   
    21    18    21 1   
    22    19    21 1   
@<TRIPOS>SUBSTRUCTURE
     1 A1A         1 TEMP              0 ****  ****    0 ROOT
