@<TRIPOS>MOLECULE
A1A
   22    22     1     0     0
SMALL
abcg2


@<TRIPOS>ATOM
      1 N1          18.7010     0.0320    16.8790 nc         1 A1A      -0.677000
      2 C4          17.5260    -0.5290    17.2940 cc         1 A1A       0.235900
      3 C5          18.3700     0.9600    16.0120 cd         1 A1A       0.408800
      4 C6          19.3250     1.8320    15.2780 c3         1 A1A      -0.125400
      5 N           17.0240     1.0140    15.8450 na         1 A1A      -0.173500
      6 C           15.0040     4.0930    14.9430 c3         1 A1A      -0.092100
      7 O           16.7230     3.7990    16.5500 oh         1 A1A      -0.657000
      8 C1          15.7090     3.1090    15.8540 c3         1 A1A       0.160300
      9 C2          16.2820     1.9520    15.0310 c3         1 A1A       0.030600
     10 C3          16.4730     0.0660    16.6670 cd         1 A1A      -0.243000
     11 H8          17.4990    -1.3330    18.0150 h4         1 A1A       0.037100
     12 H11         20.3390     1.5920    15.5890 hc         1 A1A       0.056700
     13 H10         19.2610     1.6860    14.1980 hc         1 A1A       0.056700
     14 H9          19.1460     2.8890    15.4760 hc         1 A1A       0.056700
     15 H           14.5510     4.9000    15.5180 hc         1 A1A       0.047700
     16 H1          15.6990     4.5320    14.2250 hc         1 A1A       0.047700
     17 H4          17.0240     3.2560    17.2850 ho         1 A1A       0.455000
     18 H3          14.9770     2.6910    16.5580 h1         1 A1A       0.035700
     19 H6          15.4710     1.4200    14.5330 h1         1 A1A       0.068200
     20 H5          16.9420     2.3380    14.2540 h1         1 A1A       0.068200
     21 H7          15.4090    -0.0980    16.7210 h4         1 A1A       0.154000
     22 H2          14.2110     3.5960    14.3830 hc         1 A1A       0.047700
@<TRIPOS>BOND
     1     1     2 1   
     2     1     3 2   
     3     2    10 2   
     4     2    11 1   
     5     3     4 1   
     6     3     5 1   
     7     4    12 1   
     8     4    13 1   
     9     4    14 1   
    10     5     9 1   
    11     5    10 1   
    12     6     8 1   
    13     6    15 1   
    14     6    16 1   
    15     6    22 1   
    16     7     8 1   
    17     7    17 1   
    18     8     9 1   
    19     8    18 1   
    20     9    19 1   
    21     9    20 1   
    22    10    21 1   
@<TRIPOS>SUBSTRUCTURE
     1 A1A         1 TEMP              0 ****  ****    0 ROOT
