@<TRIPOS>MOLECULE
A1A
   27    27     1     0     0
SMALL
No Charge or Current Charge


@<TRIPOS>ATOM
      1 C6         -41.9380    22.9810    13.9710 c3         1 A1A       0.078000
      2 C2         -44.8700    25.9110    15.9100 ca         1 A1A      -0.008500
      3 O2         -44.2200    29.8010    16.0730 o          1 A1A      -0.526000
      4 C4         -42.7510    24.7220    15.6690 ca         1 A1A      -0.027300
      5 C7         -41.9230    24.8790    12.2780 cs         1 A1A       0.366200
      6 C5         -41.9850    23.4220    15.4500 c3         1 A1A      -0.058100
      7 C8         -42.0610    25.9380    15.8320 ca         1 A1A      -0.122500
      8 C1         -44.1760    27.1280    16.0730 ca         1 A1A      -0.313500
      9 C3         -44.1570    24.7160    15.7100 ca         1 A1A      -0.122500
     10 C9         -42.7660    27.1370    16.0320 ca         1 A1A      -0.008500
     11 O1         -46.4420    28.5410    15.7900 o          1 A1A      -0.526000
     12 N1         -45.2660    28.6490    17.9540 n8         1 A1A      -0.993100
     13 N2         -41.2960    23.9800    13.1070 ns         1 A1A      -0.401900
     14 S1         -45.0860    28.6520    16.3290 sy         1 A1A       1.139600
     15 S2         -43.5800    24.9490    12.0250 s          1 A1A      -0.543400
     16 H7         -42.9570    22.7810    13.6170 h1         1 A1A       0.077200
     17 H8         -41.3740    22.0420    13.8940 h1         1 A1A       0.077200
     18 H3         -45.9580    25.8850    15.9370 ha         1 A1A       0.136500
     19 H10        -41.2150    25.5340    11.7670 h5         1 A1A       0.041200
     20 H5         -42.4440    22.6180    16.0390 hc         1 A1A       0.058200
     21 H6         -40.9580    23.5180    15.8230 hc         1 A1A       0.058200
     22 H11        -40.9740    25.9570    15.8000 ha         1 A1A       0.115000
     23 H4         -44.7020    23.7840    15.5830 ha         1 A1A       0.115000
     24 H12        -42.2100    28.0670    16.1530 ha         1 A1A       0.136500
     25 H1         -44.5540    27.9830    18.2440 hn         1 A1A       0.472500
     26 H2         -44.8680    29.5530    18.1950 hn         1 A1A       0.472500
     27 H9         -40.2830    24.0400    13.1430 hn         1 A1A       0.308500
@<TRIPOS>BOND
     1     1     6 1   
     2     1    13 1   
     3     1    16 1   
     4     1    17 1   
     5     2     8 ar  
     6     2     9 ar  
     7     2    18 1   
     8     3    14 2   
     9     4     6 1   
    10     4     7 ar  
    11     4     9 ar  
    12     5    13 1   
    13     5    15 2   
    14     5    19 1   
    15     6    20 1   
    16     6    21 1   
    17     7    10 ar  
    18     7    22 1   
    19     8    10 ar  
    20     8    14 1   
    21     9    23 1   
    22    10    24 1   
    23    11    14 2   
    24    12    14 1   
    25    12    25 1   
    26    12    26 1   
    27    13    27 1   
@<TRIPOS>SUBSTRUCTURE
     1 A1A         1 TEMP              0 ****  ****    0 ROOT
