@<TRIPOS>MOLECULE
A1A
   30    31     1     0     0
SMALL
No Charge or Current Charge


@<TRIPOS>ATOM
      1 N1          16.6230     1.9000    14.8390 nb         1 A1A      -0.631000
      2 C4          16.2400    -1.9810    20.4430 c6         1 A1A      -0.097400
      3 C5          15.7040    -2.0210    18.9920 c6         1 A1A       0.094000
      4 C6          17.2550    -0.9590    17.2970 c          1 A1A       0.521600
      5 C7          17.5370     0.1830    16.3240 ca         1 A1A       0.248500
      6 C8          16.4510     0.8820    15.7280 ca         1 A1A       0.308900
      7 C10         19.0100     1.5100    15.1170 ca         1 A1A       0.286900
      8 N           16.1620    -0.8400    18.2000 n          1 A1A      -0.400800
      9 C           14.2570     0.7530    18.7350 c3         1 A1A      -0.102100
     10 O           17.9170    -1.9940    17.2640 o          1 A1A      -0.575100
     11 C1          15.7840     0.4700    18.8180 c6         1 A1A       0.117700
     12 C2          16.3110     0.5520    20.2790 c6         1 A1A      -0.091400
     13 C3          15.8620    -0.6540    21.1380 c6         1 A1A      -0.073400
     14 C9          17.9160     2.2080    14.5440 ca         1 A1A       0.291900
     15 N2          18.8380     0.4930    16.0050 nb         1 A1A      -0.601000
     16 H9          15.8430    -2.8330    21.0120 hc         1 A1A       0.052700
     17 H10         16.0190    -2.9570    18.5110 h1         1 A1A       0.060700
     18 H11         14.6050    -2.0400    19.0110 h1         1 A1A       0.060700
     19 H12         15.4210     0.6110    15.9490 h4         1 A1A       0.036100
     20 H14         20.0350     1.7710    14.8590 h4         1 A1A       0.035100
     21 H2          13.9030     0.7170    17.6990 hc         1 A1A       0.042367
     22 H1          13.6670     0.0290    19.3080 hc         1 A1A       0.042367
     23 H           14.0230     1.7500    19.1270 hc         1 A1A       0.042367
     24 H3          16.2750     1.2890    18.2750 h1         1 A1A       0.056700
     25 H4          17.4100     0.5880    20.2590 hc         1 A1A       0.050700
     26 H5          15.9850     1.4910    20.7480 hc         1 A1A       0.050700
     27 H6          16.3320    -0.6040    22.1300 hc         1 A1A       0.042700
     28 H7          14.7770    -0.6170    21.3090 hc         1 A1A       0.042700
     29 H13         18.0810     3.0190    13.8360 h4         1 A1A       0.032100
     30 H8          17.3330    -2.0940    20.4300 hc         1 A1A       0.052700
@<TRIPOS>BOND
     1     1     6 ar  
     2     1    14 ar  
     3     2     3 1   
     4     2    13 1   
     5     2    16 1   
     6     2    30 1   
     7     3     8 1   
     8     3    17 1   
     9     3    18 1   
    10     4     5 1   
    11     4     8 1   
    12     4    10 2   
    13     5     6 ar  
    14     5    15 ar  
    15     6    19 1   
    16     7    14 ar  
    17     7    15 ar  
    18     7    20 1   
    19     8    11 1   
    20     9    11 1   
    21     9    21 1   
    22     9    22 1   
    23     9    23 1   
    24    11    12 1   
    25    11    24 1   
    26    12    13 1   
    27    12    25 1   
    28    12    26 1   
    29    13    27 1   
    30    13    28 1   
    31    14    29 1   
@<TRIPOS>SUBSTRUCTURE
     1 A1A         1 TEMP              0 ****  ****    0 ROOT
