@<TRIPOS>MOLECULE
A1A
   57    60     1     0     0
SMALL
abcg2


@<TRIPOS>ATOM
      1 C1          34.7340    19.0800     1.0960 c3         1 A1A      -0.115100
      2 C2          35.7370    18.1200     1.7120 c3         1 A1A       0.134000
      3 C4          34.7360    15.8540     1.4790 c          1 A1A       0.574000
      4 C8          34.7690    16.6550     3.5480 cc         1 A1A       0.367900
      5 C11         33.6320    13.7370     2.1410 ca         1 A1A       0.074600
      6 C12         34.0450    12.6490     2.8770 ca         1 A1A      -0.101000
      7 C15         33.2570     9.0610     3.1750 cc         1 A1A      -0.032400
      8 C17         31.8520     9.9540     1.4150 c          1 A1A       0.571600
      9 C19         32.4980    11.2420     1.6830 ca         1 A1A      -0.148600
     10 C21         32.6400    13.5700     1.1710 ca         1 A1A       0.160000
     11 C23         31.6680     7.6390     2.0590 ca         1 A1A       0.020600
     12 C24         30.5600     7.3360     2.8360 ca         1 A1A      -0.091000
     13 C27         31.6020     5.4680     1.0830 ca         1 A1A      -0.109000
     14 C31         35.5780     9.0000     4.8920 c3         1 A1A      -0.090600
     15 C32         34.3000    10.9520     5.8040 c3         1 A1A      -0.090600
     16 N3          35.1110    16.9270     2.2530 n          1 A1A      -0.320300
     17 N6          34.1610    15.0080     2.3940 n          1 A1A      -0.082000
     18 N7          34.2030    15.5040     3.6620 n2         1 A1A      -0.473300
     19 C9          35.0180    17.5670     4.6950 c3         1 A1A       0.148300
     20 O10         34.2730    18.7430     4.4920 oh         1 A1A      -0.649000
     21 C13         33.4810    11.3790     2.6790 ca         1 A1A       0.014200
     22 C14         33.8800    10.2220     3.4480 cd         1 A1A      -0.147400
     23 N16         32.2800     8.9230     2.2140 n          1 A1A      -0.213200
     24 O18         30.9940     9.7880     0.5620 o          1 A1A      -0.533000
     25 C20         32.0860    12.3440     0.9280 ca         1 A1A      -0.086000
     26 F22         32.2100    14.6410     0.5010 f          1 A1A      -0.156000
     27 C25         29.9660     6.0870     2.7340 ca         1 A1A      -0.110000
     28 C26         30.4910     5.1530     1.8530 ca         1 A1A      -0.097000
     29 C28         32.2140     6.7170     1.1680 ca         1 A1A      -0.051300
     30 C29         33.4170     7.0490     0.3380 c3         1 A1A      -0.050800
     31 H1          35.2580    19.9450     0.6920 hc         1 A1A       0.052367
     32 H2          34.1860    18.6110     0.2800 hc         1 A1A       0.052367
     33 H3          34.0220    19.4300     1.8400 hc         1 A1A       0.052367
     34 H4          36.4690    17.8010     0.9710 h1         1 A1A       0.055700
     35 H5          36.2940    18.6020     2.5130 h1         1 A1A       0.055700
     36 H6          34.8150    12.8010     3.6200 ha         1 A1A       0.136000
     37 H7          33.4830     8.1460     3.7030 h4         1 A1A       0.206000
     38 H8          30.1690     8.0790     3.5200 ha         1 A1A       0.125000
     39 H9          32.0070     4.7310     0.4010 ha         1 A1A       0.116000
     40 H10         35.7090    10.9910     4.1910 hc         1 A1A       0.052700
     41 H11         36.3860     9.1710     5.6040 hc         1 A1A       0.036533
     42 H12         34.8830     8.3010     5.3600 hc         1 A1A       0.036533
     43 H13         36.0040     8.5180     4.0110 hc         1 A1A       0.036533
     44 H14         35.0650    11.1100     6.5660 hc         1 A1A       0.036533
     45 H15         33.8280    11.9150     5.6050 hc         1 A1A       0.036533
     46 H16         33.5390    10.2900     6.2230 hc         1 A1A       0.036533
     47 H17         34.7290    17.0350     5.6070 h1         1 A1A       0.048200
     48 H18         36.0940    17.7680     4.7640 h1         1 A1A       0.048200
     49 H19         34.6180    19.4240     5.0780 ho         1 A1A       0.453000
     50 H20         31.3150    12.2360     0.1770 ha         1 A1A       0.158000
     51 H21         29.1030     5.8480     3.3410 ha         1 A1A       0.119000
     52 H22         30.0380     4.1740     1.7670 ha         1 A1A       0.116000
     53 H23         33.2150     7.8710    -0.3510 hc         1 A1A       0.049033
     54 H24         34.2660     7.3470     0.9540 hc         1 A1A       0.049033
     55 H25         33.7240     6.1900    -0.2560 hc         1 A1A       0.049033
     56 O5          34.9030    15.6880     0.2880 o          1 A1A      -0.533000
     57 C30         34.9120    10.3280     4.5470 c3         1 A1A      -0.001500
@<TRIPOS>BOND
     1     1     2 1   
     2     1    31 1   
     3     1    32 1   
     4     1    33 1   
     5     2    16 1   
     6     2    34 1   
     7     2    35 1   
     8     3    16 1   
     9     3    17 1   
    10     3    56 2   
    11     4    16 1   
    12     4    18 2   
    13     4    19 1   
    14     5     6 ar  
    15     5    10 ar  
    16     5    17 1   
    17     6    21 ar  
    18     6    36 1   
    19     7    22 2   
    20     7    23 1   
    21     7    37 1   
    22     8     9 1   
    23     8    23 1   
    24     8    24 2   
    25     9    21 ar  
    26     9    25 ar  
    27    10    25 ar  
    28    10    26 1   
    29    11    12 ar  
    30    11    23 1   
    31    11    29 ar  
    32    12    27 ar  
    33    12    38 1   
    34    13    28 ar  
    35    13    29 ar  
    36    13    39 1   
    37    14    41 1   
    38    14    42 1   
    39    14    43 1   
    40    14    57 1   
    41    15    44 1   
    42    15    45 1   
    43    15    46 1   
    44    15    57 1   
    45    17    18 1   
    46    19    20 1   
    47    19    47 1   
    48    19    48 1   
    49    20    49 1   
    50    21    22 1   
    51    22    57 1   
    52    25    50 1   
    53    27    28 ar  
    54    27    51 1   
    55    28    52 1   
    56    29    30 1   
    57    30    53 1   
    58    30    54 1   
    59    30    55 1   
    60    40    57 1   
@<TRIPOS>SUBSTRUCTURE
     1 A1A         1 TEMP              0 ****  ****    0 ROOT
