@<TRIPOS>MOLECULE
A1A
   49    51     1     0     0
SMALL
No Charge or Current Charge


@<TRIPOS>ATOM
      1 C1          -8.3170   -15.6610   -55.1780 c          1 A1A       0.643100
      2 C2          -7.2460   -14.6750   -57.2960 ca         1 A1A       0.051000
      3 C3          -6.5790   -15.8110   -57.7970 ca         1 A1A      -0.185500
      4 C4          -5.8340   -15.7360   -58.9870 ca         1 A1A      -0.020000
      5 C11         -6.4010   -13.3870   -59.1980 ca         1 A1A      -0.020000
      6 C13         -9.1890   -15.1820   -54.0030 c3         1 A1A      -0.111400
      7 C14        -10.6490   -15.7260   -54.1010 c3         1 A1A      -0.179400
      8 C15        -11.3810   -15.1930   -55.3510 c          1 A1A       0.732000
      9 C16        -11.4740   -15.4560   -52.8380 ca         1 A1A       0.027700
     10 C18        -12.2770   -13.9520   -51.0840 ca         1 A1A      -0.068000
     11 C21        -12.9790   -16.2760   -51.0930 ca         1 A1A      -0.068000
     12 C19        -13.0100   -15.0010   -50.4900 ca         1 A1A      -0.230300
     13 C17        -11.5170   -14.1780   -52.2440 ca         1 A1A      -0.119000
     14 C22        -12.2170   -16.4990   -52.2530 ca         1 A1A      -0.119000
     15 C10         -3.3480   -13.9460   -63.6930 c3         1 A1A       0.064900
     16 C12         -7.1420   -13.4670   -58.0070 ca         1 A1A      -0.185500
     17 C5          -5.7510   -14.5300   -59.7140 ca         1 A1A      -0.219600
     18 C6          -4.9160   -14.4930   -60.9850 c          1 A1A       0.535200
     19 C7          -5.3520   -13.5940   -62.1290 cc         1 A1A       0.324000
     20 C8          -6.5270   -12.2510   -63.3920 cd         1 A1A       0.222900
     21 C9          -5.3980   -12.5270   -64.1060 cc         1 A1A      -0.235000
     22 F1         -15.1060   -14.3700   -49.5470 f          1 A1A      -0.126000
     23 F2         -13.9530   -15.8560   -48.4560 f          1 A1A      -0.126000
     24 F3         -13.3260   -13.7810   -48.4480 f          1 A1A      -0.126000
     25 N1          -8.0150   -14.6700   -56.1020 ns         1 A1A      -0.138000
     26 N2          -6.5020   -12.9110   -62.1850 nd         1 A1A      -0.629000
     27 N3          -4.6550   -13.3800   -63.3190 na         1 A1A      -0.124500
     28 O1          -7.9160   -16.8190   -55.2460 o          1 A1A      -0.579100
     29 O2          -3.9010   -15.1890   -61.0360 o          1 A1A      -0.562100
     30 O3         -11.7710   -16.0070   -56.1740 o          1 A1A      -0.710000
     31 O4         -11.5200   -13.9860   -55.4770 o          1 A1A      -0.710000
     32 H1          -6.6200   -16.7650   -57.2820 ha         1 A1A       0.133000
     33 H2          -5.3280   -16.6290   -59.3500 ha         1 A1A       0.120000
     34 H3          -6.3180   -12.4220   -59.6930 ha         1 A1A       0.120000
     35 H4          -8.7480   -15.5580   -53.0720 hc         1 A1A       0.041700
     36 H5          -9.2100   -14.0860   -53.9810 hc         1 A1A       0.041700
     37 H6         -10.5770   -16.8140   -54.2190 hc         1 A1A       0.066700
     38 H7         -12.2970   -12.9530   -50.6530 ha         1 A1A       0.110000
     39 H8         -13.5470   -17.1010   -50.6670 ha         1 A1A       0.110000
     40 H9         -10.9690   -13.3500   -52.6840 ha         1 A1A       0.124500
     41 H10        -12.2090   -17.4910   -52.6980 ha         1 A1A       0.124500
     42 H11         -2.5960   -13.6690   -62.9430 h1         1 A1A       0.057700
     43 H12         -3.4210   -15.0390   -63.7510 h1         1 A1A       0.057700
     44 H13         -3.0370   -13.5570   -64.6700 h1         1 A1A       0.057700
     45 H14         -7.6350   -12.5720   -57.6310 ha         1 A1A       0.133000
     46 H15         -7.3590   -11.6190   -63.6790 h4         1 A1A       0.038100
     47 H16         -5.0820   -12.1910   -65.0860 h4         1 A1A       0.150000
     48 H17         -8.4250   -13.7710   -55.8870 hn         1 A1A       0.151000
     49 C20        -13.8480   -14.7520   -49.2310 c3         1 A1A       0.354300
@<TRIPOS>BOND
     1     1     6 1   
     2     1    25 1   
     3     1    28 2   
     4     2     3 ar  
     5     2    16 ar  
     6     2    25 1   
     7     3     4 ar  
     8     3    32 1   
     9     4    17 ar  
    10     4    33 1   
    11     5    16 ar  
    12     5    17 ar  
    13     5    34 1   
    14     6     7 1   
    15     6    35 1   
    16     6    36 1   
    17     7     8 1   
    18     7     9 1   
    19     7    37 1   
    20     8    30 1   
    21     8    31 1   
    22     9    13 ar  
    23     9    14 ar  
    24    10    12 ar  
    25    10    13 ar  
    26    10    38 1   
    27    11    12 ar  
    28    11    14 ar  
    29    11    39 1   
    30    12    49 1   
    31    13    40 1   
    32    14    41 1   
    33    15    27 1   
    34    15    42 1   
    35    15    43 1   
    36    15    44 1   
    37    16    45 1   
    38    17    18 1   
    39    18    19 1   
    40    18    29 2   
    41    19    26 2   
    42    19    27 1   
    43    20    21 2   
    44    20    26 1   
    45    20    46 1   
    46    21    27 1   
    47    21    47 1   
    48    22    49 1   
    49    23    49 1   
    50    24    49 1   
    51    25    48 1   
@<TRIPOS>SUBSTRUCTURE
     1 A1A         1 TEMP              0 ****  ****    0 ROOT
