@<TRIPOS>MOLECULE
A1A
   57    60     1     0     0
SMALL
abcg2


@<TRIPOS>ATOM
      1 C1          34.9030    18.9960     0.8500 c3         1 A1A      -0.116100
      2 C2          35.8860    18.1120     1.5960 c3         1 A1A       0.134000
      3 C4          34.9470    15.8160     1.4160 c          1 A1A       0.574000
      4 C8          34.8350    16.7170     3.4400 cc         1 A1A       0.367900
      5 C11         33.7960    13.7340     2.0900 ca         1 A1A       0.080600
      6 C12         34.1740    12.6490     2.8520 ca         1 A1A      -0.102000
      7 C15         33.3070     9.0660     3.1580 cc         1 A1A      -0.009400
      8 C17         31.9790     9.9770     1.3530 c          1 A1A       0.572600
      9 C19         32.6510    11.2500     1.6240 ca         1 A1A      -0.147600
     10 C21         32.8370    13.5680     1.0880 ca         1 A1A       0.162000
     11 C23         31.7260     7.6690     1.9990 ca         1 A1A       0.014600
     12 C24         30.7260     7.3120     2.8900 ca         1 A1A      -0.096000
     13 C27         31.4910     5.5870     0.8710 ca         1 A1A      -0.108000
     14 C30         34.9410    10.3100     4.5790 c3         1 A1A      -0.062500
     15 C32         34.2090    10.4610     5.9140 c3         1 A1A      -0.091100
     16 C33         35.9630     9.1890     4.6200 c3         1 A1A       0.297000
     17 N3          35.2590    16.9290     2.1590 n          1 A1A      -0.319300
     18 N6          34.3300    15.0040     2.3340 n          1 A1A      -0.086000
     19 N7          34.2780    15.5630     3.5760 n2         1 A1A      -0.473300
     20 C9          35.0020    17.6900     4.5520 c3         1 A1A       0.148300
     21 O10         34.2630    18.8480     4.2480 oh         1 A1A      -0.648000
     22 C13         33.6110    11.3800     2.6460 ca         1 A1A       0.021200
     23 C14         33.9640    10.2130     3.4260 cd         1 A1A      -0.168400
     24 N16         32.3630     8.9400     2.1680 n          1 A1A      -0.207200
     25 O18         31.1310     9.8280     0.4880 o          1 A1A      -0.525000
     26 C20         32.2730    12.3470     0.8470 ca         1 A1A      -0.084000
     27 F22         32.4490    14.6320     0.3860 f          1 A1A      -0.154000
     28 C25         30.1020     6.0800     2.7710 ca         1 A1A      -0.110000
     29 C26         30.4870     5.2170     1.7550 ca         1 A1A      -0.094000
     30 C28         32.1340     6.8180     0.9730 ca         1 A1A      -0.042300
     31 C29         33.2150     7.2050     0.0090 c3         1 A1A      -0.054800
     32 F34         36.5840     9.0280     3.4460 f          1 A1A      -0.117000
     33 F35         36.9150     9.4440     5.5290 f          1 A1A      -0.117000
     34 F36         35.4480     7.9940     4.9530 f          1 A1A      -0.117000
     35 H1          35.4260    19.8610     0.4440 hc         1 A1A       0.053033
     36 H2          34.4420    18.4640     0.0190 hc         1 A1A       0.053033
     37 H3          34.1190    19.3550     1.5140 hc         1 A1A       0.053033
     38 H4          36.6850    17.7790     0.9340 h1         1 A1A       0.056200
     39 H5          36.3590    18.6600     2.4080 h1         1 A1A       0.056200
     40 H6          34.9140    12.8160     3.6220 ha         1 A1A       0.133000
     41 H7          33.4720     8.1550     3.7120 h4         1 A1A       0.216000
     42 H8          30.4380     8.0010     3.6750 ha         1 A1A       0.122000
     43 H9          31.7900     4.9030     0.0860 ha         1 A1A       0.118000
     44 H10         35.5570    11.2010     4.4350 hc         1 A1A       0.084700
     45 H11         34.8990    10.5950     6.7470 hc         1 A1A       0.052367
     46 H12         33.5720    11.3440     5.8720 hc         1 A1A       0.052367
     47 H13         33.5710     9.6020     6.1200 hc         1 A1A       0.052367
     48 H14         34.6580    17.2020     5.4700 h1         1 A1A       0.050700
     49 H15         36.0690    17.9050     4.6790 h1         1 A1A       0.050700
     50 H16         34.6460    19.5880     4.7280 ho         1 A1A       0.453000
     51 H17         31.5210    12.2380     0.0770 ha         1 A1A       0.160000
     52 H18         29.3220     5.7990     3.4660 ha         1 A1A       0.119000
     53 H19         30.0080     4.2520     1.6510 ha         1 A1A       0.117000
     54 H20         32.8570     7.9460    -0.7070 hc         1 A1A       0.052033
     55 H21         34.0800     7.6340     0.5160 hc         1 A1A       0.052033
     56 H22         33.5550     6.3380    -0.5560 hc         1 A1A       0.052033
     57 O5          35.1860    15.5950     0.2450 o          1 A1A      -0.533000
@<TRIPOS>BOND
     1     1     2 1   
     2     1    35 1   
     3     1    36 1   
     4     1    37 1   
     5     2    17 1   
     6     2    38 1   
     7     2    39 1   
     8     3    17 1   
     9     3    18 1   
    10     3    57 2   
    11     4    17 1   
    12     4    19 2   
    13     4    20 1   
    14     5     6 ar  
    15     5    10 ar  
    16     5    18 1   
    17     6    22 ar  
    18     6    40 1   
    19     7    23 2   
    20     7    24 1   
    21     7    41 1   
    22     8     9 1   
    23     8    24 1   
    24     8    25 2   
    25     9    22 ar  
    26     9    26 ar  
    27    10    26 ar  
    28    10    27 1   
    29    11    12 ar  
    30    11    24 1   
    31    11    30 ar  
    32    12    28 ar  
    33    12    42 1   
    34    13    29 ar  
    35    13    30 ar  
    36    13    43 1   
    37    14    15 1   
    38    14    16 1   
    39    14    23 1   
    40    14    44 1   
    41    15    45 1   
    42    15    46 1   
    43    15    47 1   
    44    16    32 1   
    45    16    33 1   
    46    16    34 1   
    47    18    19 1   
    48    20    21 1   
    49    20    48 1   
    50    20    49 1   
    51    21    50 1   
    52    22    23 1   
    53    26    51 1   
    54    28    29 ar  
    55    28    52 1   
    56    29    53 1   
    57    30    31 1   
    58    31    54 1   
    59    31    55 1   
    60    31    56 1   
@<TRIPOS>SUBSTRUCTURE
     1 A1A         1 TEMP              0 ****  ****    0 ROOT
