@<TRIPOS>MOLECULE
A1A
   26    27     1     0     0
SMALL
abcg2


@<TRIPOS>ATOM
      1 N1          41.4390    46.6560    -4.6910 nv         1 A1A      -0.996200
      2 C4          42.5060    43.3800    -4.5620 ca         1 A1A       0.098400
      3 C5          43.0500    42.1710    -4.9840 ca         1 A1A      -0.066000
      4 C6          43.1480    41.1360    -4.0640 ca         1 A1A      -0.128000
      5 C7          42.7110    41.2990    -2.7480 ca         1 A1A      -0.111000
      6 C8          42.1630    42.4990    -2.3100 ca         1 A1A      -0.109000
      7 N           41.5980    44.8300    -3.1570 na         1 A1A      -0.209600
      8 C           42.1540    45.5910    -0.8790 c3         1 A1A      -0.106600
      9 C1          41.0960    45.5200    -1.9720 c3         1 A1A       0.101300
     10 C2          39.7840    44.9160    -1.4900 c3         1 A1A      -0.106600
     11 C3          41.7530    45.3620    -4.4070 cc         1 A1A       0.620700
     12 C9          42.0730    43.5320    -3.2320 ca         1 A1A      -0.077200
     13 N2          42.2880    44.5350    -5.2700 nd         1 A1A      -0.640100
     14 H7          41.4670    46.8610    -5.6780 hn         1 A1A       0.466000
     15 H8          40.6160    47.0410    -4.2540 hn         1 A1A       0.466000
     16 H9          43.3840    42.0450    -6.0060 ha         1 A1A       0.126000
     17 H10         43.5680    40.1870    -4.3720 ha         1 A1A       0.111000
     18 H11         42.7960    40.4750    -2.0520 ha         1 A1A       0.109000
     19 H12         41.8270    42.5990    -1.2870 ha         1 A1A       0.113000
     20 H1          43.0760    46.0350    -1.2540 hc         1 A1A       0.047533
     21 H2          41.7890    46.2140    -0.0630 hc         1 A1A       0.047533
     22 H           42.3890    44.6120    -0.4630 hc         1 A1A       0.047533
     23 H3          40.8940    46.5450    -2.2810 h1         1 A1A       0.054700
     24 H4          39.0410    44.9100    -2.2870 hc         1 A1A       0.047533
     25 H5          39.9100    43.8940    -1.1320 hc         1 A1A       0.047533
     26 H6          39.3910    45.5090    -0.6650 hc         1 A1A       0.047533
@<TRIPOS>BOND
     1     1    11 1   
     2     1    14 1   
     3     1    15 1   
     4     2     3 ar  
     5     2    12 ar  
     6     2    13 1   
     7     3     4 ar  
     8     3    16 1   
     9     4     5 ar  
    10     4    17 1   
    11     5     6 ar  
    12     5    18 1   
    13     6    12 ar  
    14     6    19 1   
    15     7     9 1   
    16     7    11 1   
    17     7    12 1   
    18     8     9 1   
    19     8    20 1   
    20     8    21 1   
    21     8    22 1   
    22     9    10 1   
    23     9    23 1   
    24    10    24 1   
    25    10    25 1   
    26    10    26 1   
    27    11    13 2   
@<TRIPOS>SUBSTRUCTURE
     1 A1A         1 TEMP              0 ****  ****    0 ROOT
