@<TRIPOS>MOLECULE
A1A
   52    56     1     0     0
SMALL
No Charge or Current Charge


@<TRIPOS>ATOM
      1 N6          20.1800   -24.1350    27.9930 nb         1 A1A      -0.218000
      2 N4          20.5060   -26.4900    27.7310 nb         1 A1A      -0.173000
      3 C14         16.3960   -25.3980    23.7120 c5         1 A1A      -0.023100
      4 C13         18.2360   -26.6590    26.0050 c6         1 A1A       0.215300
      5 C12         16.7040   -26.8460    25.8900 c6         1 A1A      -0.094900
      6 C17         14.4010   -25.7680    25.1650 c5         1 A1A       0.212800
      7 C16         14.0980   -24.8220    24.0290 ca         1 A1A      -0.098300
      8 C15         15.2020   -24.6200    23.2230 ca         1 A1A      -0.067300
      9 C11         15.9900   -25.6250    25.2340 c5         1 A1A      -0.042000
     10 N3          21.6560   -26.4550    28.4360 nb         1 A1A      -0.191000
     11 C10         16.3720   -24.4020    26.1320 c6         1 A1A      -0.094900
     12 C22         12.8780   -24.1800    23.7560 ca         1 A1A      -0.093000
     13 C5          19.8040   -25.3460    27.5240 ca         1 A1A       0.342900
     14 C1          21.3310   -24.1000    28.6990 ca         1 A1A       0.168900
     15 C19         15.1380   -23.7730    22.1050 ca         1 A1A      -0.101000
     16 C20         13.9230   -23.1220    21.8150 ca         1 A1A      -0.104000
     17 C21         12.7950   -23.3240    22.6390 ca         1 A1A      -0.115000
     18 C2          22.0860   -25.2710    28.9230 ca         1 A1A       0.190300
     19 C23         24.3460   -23.7410    29.1960 ca         1 A1A      -0.033000
     20 C24         24.6070   -23.6250    27.8180 ca         1 A1A      -0.221000
     21 C25         25.1820   -22.4430    27.3170 ca         1 A1A       0.402900
     22 C27         25.2590   -21.5150    29.4020 ca         1 A1A       0.631900
     23 C28         24.6820   -22.6500    30.0190 ca         1 A1A      -0.015000
     24 C9          17.8990   -24.1890    26.2920 c6         1 A1A       0.215300
     25 N18         13.9070   -27.0980    24.7740 n8         1 A1A      -0.991200
     26 N26         25.5050   -21.3890    28.1010 nb         1 A1A      -0.749000
     27 N29         25.6230   -20.3950    30.0450 nv         1 A1A      -1.054900
     28 N8          18.5910   -25.4260    26.7780 nh         1 A1A      -0.741300
     29 S7          23.6110   -25.2340    29.8590 ss         1 A1A      -0.052300
     30 Cl1         24.3760   -22.6970    31.7630 cl         1 A1A      -0.186000
     31 H1          16.4890   -26.3470    23.1720 hc         1 A1A       0.058700
     32 H2          17.3400   -24.8590    23.5820 hc         1 A1A       0.058700
     33 H3          18.6770   -26.6120    24.9980 h1         1 A1A       0.070950
     34 H4          18.6350   -27.5650    26.4850 h1         1 A1A       0.070950
     35 H5          16.5080   -27.7560    25.3080 hc         1 A1A       0.058950
     36 H6          16.2880   -27.0270    26.8900 hc         1 A1A       0.058950
     37 H7          13.9030   -25.4700    26.0990 h1         1 A1A       0.033700
     38 H8          15.9330   -24.5340    27.1310 hc         1 A1A       0.058950
     39 H9          15.9270   -23.4820    25.7310 hc         1 A1A       0.058950
     40 H10         12.0130   -24.3400    24.3950 ha         1 A1A       0.111000
     41 H11         21.6430   -23.1320    29.0870 h4         1 A1A       0.044100
     42 H12         16.0120   -23.6200    21.4760 ha         1 A1A       0.114000
     43 H13         13.8550   -22.4600    20.9540 ha         1 A1A       0.113000
     44 H14         11.8590   -22.8190    22.4120 ha         1 A1A       0.113000
     45 H15         24.3730   -24.4370    27.1360 ha         1 A1A       0.132000
     46 H16         25.3890   -22.3360    26.2520 h4         1 A1A       0.020100
     47 H17         18.0310   -23.3540    26.9950 h1         1 A1A       0.070950
     48 H18         18.3330   -23.8660    25.3350 h1         1 A1A       0.070950
     49 H19         13.9980   -27.7320    25.5740 hn         1 A1A       0.397000
     50 H20         12.8950   -27.0380    24.6210 hn         1 A1A       0.397000
     51 H22         25.7610   -19.5900    29.4460 hn         1 A1A       0.485000
     52 H23         25.2000   -20.2230    30.9510 hn         1 A1A       0.485000
@<TRIPOS>BOND
     1     1    13 ar  
     2     1    14 ar  
     3     2    10 ar  
     4     2    13 ar  
     5     3     8 1   
     6     3     9 1   
     7     3    31 1   
     8     3    32 1   
     9     4     5 1   
    10     4    28 1   
    11     4    33 1   
    12     4    34 1   
    13     5     9 1   
    14     5    35 1   
    15     5    36 1   
    16     6     7 1   
    17     6     9 1   
    18     6    25 1   
    19     6    37 1   
    20     7     8 ar  
    21     7    12 ar  
    22     8    15 ar  
    23     9    11 1   
    24    10    18 ar  
    25    11    24 1   
    26    11    38 1   
    27    11    39 1   
    28    12    17 ar  
    29    12    40 1   
    30    13    28 1   
    31    14    18 ar  
    32    14    41 1   
    33    15    16 ar  
    34    15    42 1   
    35    16    17 ar  
    36    16    43 1   
    37    17    44 1   
    38    18    29 1   
    39    19    20 ar  
    40    19    23 ar  
    41    19    29 1   
    42    20    21 ar  
    43    20    45 1   
    44    21    26 ar  
    45    21    46 1   
    46    22    23 ar  
    47    22    26 ar  
    48    22    27 1   
    49    23    30 1   
    50    24    28 1   
    51    24    47 1   
    52    24    48 1   
    53    25    49 1   
    54    25    50 1   
    55    27    51 1   
    56    27    52 1   
@<TRIPOS>SUBSTRUCTURE
     1 A1A         1 TEMP              0 ****  ****    0 ROOT
