@<TRIPOS>MOLECULE
A1A
   28    29     1     0     0
SMALL
No Charge or Current Charge


@<TRIPOS>ATOM
      1 C4          16.2410    -0.8220    18.2110 ca         1 A1A      -0.101600
      2 C5          15.6470    -1.1280    19.4580 ca         1 A1A      -0.165000
      3 C6          15.7670     0.3880    17.4260 c          1 A1A       0.618700
      4 C7          16.1370     2.0110    15.5500 c6         1 A1A       0.060000
      5 C8          17.1610     2.4300    14.4640 c6         1 A1A       0.138600
      6 C10         18.0670     1.3160    16.9800 c6         1 A1A       0.060000
      7 N           16.6680     1.0100    16.5290 n          1 A1A      -0.412800
      8 C           16.0550    -2.2560    20.1890 ca         1 A1A       0.136100
      9 O           15.4850    -2.5360    21.3960 oh         1 A1A      -0.532100
     10 C1          17.0500    -3.1020    19.6800 ca         1 A1A      -0.131000
     11 C2          17.6320    -2.8280    18.4320 ca         1 A1A      -0.081000
     12 C3          17.2260    -1.7000    17.6990 ca         1 A1A      -0.127000
     13 C9          19.0090     1.7580    15.8310 c6         1 A1A       0.138600
     14 O1          14.6000     0.7600    17.4960 o          1 A1A      -0.591100
     15 O2          18.4060     2.8240    15.0740 os         1 A1A      -0.445000
     16 H4          14.8730    -0.4760    19.8570 ha         1 A1A       0.127000
     17 H5          15.8150     2.9080    16.0990 h1         1 A1A       0.063700
     18 H7          17.3440     1.5910    13.7770 h1         1 A1A       0.053450
     19 H8          16.7630     3.2710    13.8780 h1         1 A1A       0.053450
     20 H12         18.5200     0.4570    17.4890 h1         1 A1A       0.063700
     21 H11         18.0210     2.1260    17.7210 h1         1 A1A       0.063700
     22 H           14.8140    -1.8480    21.5910 ho         1 A1A       0.468000
     23 H1          17.3630    -3.9760    20.2460 ha         1 A1A       0.131000
     24 H2          18.3930    -3.4940    18.0290 ha         1 A1A       0.118000
     25 H3          17.6680    -1.5220    16.7210 ha         1 A1A       0.120000
     26 H10         19.2130     0.9080    15.1630 h1         1 A1A       0.053450
     27 H9          19.9670     2.1050    16.2440 h1         1 A1A       0.053450
     28 H6          15.2480     1.5980    15.0520 h1         1 A1A       0.063700
@<TRIPOS>BOND
     1     1     2 ar  
     2     1     3 1   
     3     1    12 ar  
     4     2     8 ar  
     5     2    16 1   
     6     3     7 1   
     7     3    14 2   
     8     4     5 1   
     9     4     7 1   
    10     4    17 1   
    11     4    28 1   
    12     5    15 1   
    13     5    18 1   
    14     5    19 1   
    15     6     7 1   
    16     6    13 1   
    17     6    20 1   
    18     6    21 1   
    19     8     9 1   
    20     8    10 ar  
    21     9    22 1   
    22    10    11 ar  
    23    10    23 1   
    24    11    12 ar  
    25    11    24 1   
    26    12    25 1   
    27    13    15 1   
    28    13    26 1   
    29    13    27 1   
@<TRIPOS>SUBSTRUCTURE
     1 A1A         1 TEMP              0 ****  ****    0 ROOT
