@<TRIPOS>MOLECULE
A1A
   33    34     1     0     0
SMALL
abcg2


@<TRIPOS>ATOM
      1 C4          35.8680    42.1380    10.2430 ca         1 A1A      -0.096300
      2 C5          36.1380    42.6010    11.5290 ca         1 A1A      -0.079000
      3 C6          36.8010    41.8130    12.4590 ca         1 A1A      -0.153000
      4 C7          37.2010    40.5460    12.0820 ca         1 A1A       0.170000
      5 C8          36.9700    40.0530    10.8130 ca         1 A1A      -0.153000
      6 C10         32.9430    43.3390    10.5370 c5         1 A1A       0.162800
      7 N           32.9370    44.7680    10.2940 n7         1 A1A      -0.865400
      8 C           33.2950    41.3510     8.9590 c          1 A1A       0.599100
      9 O           33.3440    40.8610     7.8570 o          1 A1A      -0.492000
     10 C1          32.8710    39.2430     9.9210 c3         1 A1A       0.150900
     11 C11         32.3750    44.9150     8.9590 c5         1 A1A       0.145800
     12 C12         32.9780    43.7420     8.1680 c5         1 A1A      -0.072400
     13 C2          33.5780    42.8060     9.2470 c5         1 A1A      -0.104000
     14 C3          35.1220    42.9840     9.2520 c3         1 A1A      -0.017100
     15 C9          36.3060    40.8590     9.9010 ca         1 A1A      -0.079000
     16 F           37.8430    39.7720    12.9730 f          1 A1A      -0.181000
     17 H5          35.8310    43.6010    11.8110 ha         1 A1A       0.121000
     18 H6          37.0070    42.1820    13.4560 ha         1 A1A       0.131000
     19 H7          37.3060    39.0610    10.5390 ha         1 A1A       0.131000
     20 H10         31.9300    42.9240    10.6560 h1         1 A1A       0.050200
     21 H9          33.5050    43.0890    11.4380 h1         1 A1A       0.050200
     22 H16         32.3940    45.2640    10.9880 hn         1 A1A       0.417000
     23 H2          32.6730    38.8700    10.9220 h1         1 A1A       0.048033
     24 H           32.0300    39.0030     9.2720 h1         1 A1A       0.048033
     25 H1          33.7720    38.7690     9.5320 h1         1 A1A       0.048033
     26 H13         31.2800    44.8360     8.9540 h1         1 A1A       0.038200
     27 H12         32.6320    45.8850     8.5280 h1         1 A1A       0.038200
     28 H15         32.2130    43.2440     7.5730 hc         1 A1A       0.060700
     29 H14         33.7510    44.0740     7.4750 hc         1 A1A       0.060700
     30 H4          35.4870    42.7750     8.2440 hc         1 A1A       0.067200
     31 H3          35.3160    44.0410     9.4440 hc         1 A1A       0.067200
     32 H8          36.1310    40.4800     8.9010 ha         1 A1A       0.121000
     33 O1          33.0460    40.6520    10.0560 os         1 A1A      -0.434100
@<TRIPOS>BOND
     1     1     2 ar  
     2     1    14 1   
     3     1    15 ar  
     4     2     3 ar  
     5     2    17 1   
     6     3     4 ar  
     7     3    18 1   
     8     4     5 ar  
     9     4    16 1   
    10     5    15 ar  
    11     5    19 1   
    12     6     7 1   
    13     6    13 1   
    14     6    20 1   
    15     6    21 1   
    16     7    11 1   
    17     7    22 1   
    18     8     9 2   
    19     8    13 1   
    20     8    33 1   
    21    10    23 1   
    22    10    24 1   
    23    10    25 1   
    24    10    33 1   
    25    11    12 1   
    26    11    26 1   
    27    11    27 1   
    28    12    13 1   
    29    12    28 1   
    30    12    29 1   
    31    13    14 1   
    32    14    30 1   
    33    14    31 1   
    34    15    32 1   
@<TRIPOS>SUBSTRUCTURE
     1 A1A         1 TEMP              0 ****  ****    0 ROOT
