@<TRIPOS>MOLECULE
A1A
   28    29     1     0     0
SMALL
abcg2


@<TRIPOS>ATOM
      1 C4          16.2860    -0.8200    18.0450 ca         1 A1A      -0.101600
      2 C5          15.7150    -1.0580    19.2900 ca         1 A1A      -0.165000
      3 C6          15.7260     0.2880    17.2080 c          1 A1A       0.618700
      4 C7          16.1510     2.1930    15.7490 c6         1 A1A       0.060000
      5 C8          17.1440     2.2580    14.6010 c6         1 A1A       0.138600
      6 C10         17.9540     1.4180    17.1560 c6         1 A1A       0.060000
      7 N           16.5930     1.1870    16.6990 n          1 A1A      -0.412800
      8 C           16.1500    -2.1290    20.0640 ca         1 A1A       0.136100
      9 O           15.6500    -2.3910    21.2870 oh         1 A1A      -0.532100
     10 C1          17.1350    -2.9830    19.5700 ca         1 A1A      -0.131000
     11 C2          17.6800    -2.7520    18.3190 ca         1 A1A      -0.081000
     12 C3          17.2690    -1.6710    17.5500 ca         1 A1A      -0.127000
     13 C9          18.8840     1.5090    15.9600 c6         1 A1A       0.138600
     14 O1          14.5230     0.3260    16.9890 o          1 A1A      -0.591100
     15 O2          18.4570     2.4990    15.0520 os         1 A1A      -0.445000
     16 H4          14.9370    -0.4010    19.6640 ha         1 A1A       0.127000
     17 H5          16.0810     3.1660    16.2470 h1         1 A1A       0.063700
     18 H7          17.0980     1.3180    14.0330 h1         1 A1A       0.053450
     19 H8          16.8770     3.0720    13.9260 h1         1 A1A       0.053450
     20 H12         18.2840     0.6280    17.8250 h1         1 A1A       0.063700
     21 H11         17.9810     2.3570    17.7190 h1         1 A1A       0.063700
     22 H           14.9790    -1.7420    21.5250 ho         1 A1A       0.468000
     23 H1          17.4670    -3.8230    20.1680 ha         1 A1A       0.131000
     24 H2          18.4380    -3.4240    17.9370 ha         1 A1A       0.118000
     25 H3          17.7030    -1.5000    16.5730 ha         1 A1A       0.120000
     26 H10         18.9380     0.5280    15.4670 h1         1 A1A       0.053450
     27 H9          19.8880     1.7790    16.2910 h1         1 A1A       0.053450
     28 H6          15.1640     1.9400    15.3690 h1         1 A1A       0.063700
@<TRIPOS>BOND
     1     1     2 ar  
     2     1     3 1   
     3     1    12 ar  
     4     2     8 ar  
     5     2    16 1   
     6     3     7 1   
     7     3    14 2   
     8     4     5 1   
     9     4     7 1   
    10     4    17 1   
    11     4    28 1   
    12     5    15 1   
    13     5    18 1   
    14     5    19 1   
    15     6     7 1   
    16     6    13 1   
    17     6    20 1   
    18     6    21 1   
    19     8     9 1   
    20     8    10 ar  
    21     9    22 1   
    22    10    11 ar  
    23    10    23 1   
    24    11    12 ar  
    25    11    24 1   
    26    12    25 1   
    27    13    15 1   
    28    13    26 1   
    29    13    27 1   
@<TRIPOS>SUBSTRUCTURE
     1 A1A         1 TEMP              0 ****  ****    0 ROOT
