@<TRIPOS>MOLECULE
A1A
   54    57     1     0     0
SMALL
No Charge or Current Charge


@<TRIPOS>ATOM
      1 C1          34.2210   -20.6700    21.5720 c3         1 A1A      -0.116100
      2 C2          33.7110   -22.0160    22.1140 c3         1 A1A       0.134000
      3 C4          31.2330   -22.2780    21.8840 c          1 A1A       0.574000
      4 C8          31.9130   -21.6000    23.8970 cc         1 A1A       0.368900
      5 C11         28.7870   -22.2910    22.4520 ca         1 A1A       0.076600
      6 C12         28.0010   -23.1190    23.2760 ca         1 A1A      -0.105000
      7 C15         24.4570   -24.3870    23.5180 cc         1 A1A      -0.029400
      8 C17         24.5870   -22.8950    21.5810 c          1 A1A       0.581600
      9 C19         26.0480   -22.7070    21.8860 ca         1 A1A      -0.143600
     10 C21         28.1890   -21.6580    21.3460 ca         1 A1A       0.160000
     11 C23         22.4370   -23.9680    22.2090 ca         1 A1A      -0.018400
     12 C24         21.9670   -24.5360    21.0010 ca         1 A1A       0.207000
     13 C27         19.6670   -24.4120    21.7870 ca         1 A1A      -0.065000
     14 C32         25.6220   -26.2480    25.4550 c3         1 A1A      -0.091100
     15 C33         26.4390   -23.9840    26.2850 c3         1 A1A      -0.091100
     16 N3          32.3290   -21.9430    22.6240 n          1 A1A      -0.321300
     17 N6          30.1720   -22.0940    22.7740 n          1 A1A      -0.079000
     18 N7          30.6080   -21.6850    24.0340 n2         1 A1A      -0.477300
     19 C9          32.8450   -21.2030    25.0340 c3         1 A1A       0.149300
     20 O10         33.2640   -19.8220    24.9640 oh         1 A1A      -0.649000
     21 C13         26.6310   -23.3470    23.0010 ca         1 A1A       0.016200
     22 C14         25.7910   -24.2240    23.8520 cd         1 A1A      -0.136400
     23 N16         23.8560   -23.7740    22.4140 n          1 A1A      -0.206200
     24 O18         24.0490   -22.2850    20.6630 o          1 A1A      -0.527000
     25 C20         26.8330   -21.8640    21.0670 ca         1 A1A      -0.084000
     26 F22         28.8980   -20.8110    20.5640 f          1 A1A      -0.154000
     27 F25         22.8380   -24.9230    20.0410 f          1 A1A      -0.157000
     28 C26         20.5960   -24.7550    20.7920 ca         1 A1A      -0.151000
     29 C28         20.1170   -23.8510    22.9930 ca         1 A1A      -0.120000
     30 C29         21.4890   -23.6320    23.2100 ca         1 A1A       0.149000
     31 Cl30        21.9710   -22.8630    24.7260 cl         1 A1A      -0.169000
     32 H1          35.2460   -20.7750    21.1980 hc         1 A1A       0.053033
     33 H2          33.5880   -20.3230    20.7470 hc         1 A1A       0.053033
     34 H3          34.2180   -19.9050    22.3570 hc         1 A1A       0.053033
     35 H4          33.7600   -22.7660    21.3140 h1         1 A1A       0.056700
     36 H5          34.3750   -22.3580    22.9180 h1         1 A1A       0.056700
     37 H6          28.4850   -23.5770    24.1310 ha         1 A1A       0.137000
     38 H7          23.7510   -25.0060    24.0600 h4         1 A1A       0.207000
     39 H8          18.6040   -24.5800    21.6250 ha         1 A1A       0.126000
     40 H9          27.3830   -25.2690    24.8460 hc         1 A1A       0.053700
     41 H10         26.1810   -26.7920    26.2260 hc         1 A1A       0.037200
     42 H11         24.6220   -26.0420    25.8560 hc         1 A1A       0.037200
     43 H12         25.5240   -26.9070    24.5840 hc         1 A1A       0.037200
     44 H13         26.9090   -24.4780    27.1430 hc         1 A1A       0.037200
     45 H14         27.0290   -23.0910    26.0430 hc         1 A1A       0.037200
     46 H15         25.4350   -23.6570    26.5820 hc         1 A1A       0.037200
     47 H16         32.3250   -21.3890    25.9830 h1         1 A1A       0.049700
     48 H17         33.7190   -21.8670    25.0200 h1         1 A1A       0.049700
     49 H18         33.8190   -19.6470    25.7570 ho         1 A1A       0.453000
     50 H19         26.3920   -21.3540    20.2130 ha         1 A1A       0.158000
     51 H20         20.2570   -25.1990    19.8600 ha         1 A1A       0.141000
     52 H21         19.3990   -23.5770    23.7620 ha         1 A1A       0.138000
     53 O5          31.2020   -22.6690    20.7240 o          1 A1A      -0.529000
     54 C31         26.3630   -24.9420    25.0750 c3         1 A1A      -0.002500
@<TRIPOS>BOND
     1     1     2 1   
     2     1    32 1   
     3     1    33 1   
     4     1    34 1   
     5     2    16 1   
     6     2    35 1   
     7     2    36 1   
     8     3    16 1   
     9     3    17 1   
    10     3    53 2   
    11     4    16 1   
    12     4    18 2   
    13     4    19 1   
    14     5     6 ar  
    15     5    10 ar  
    16     5    17 1   
    17     6    21 ar  
    18     6    37 1   
    19     7    22 2   
    20     7    23 1   
    21     7    38 1   
    22     8     9 1   
    23     8    23 1   
    24     8    24 2   
    25     9    21 ar  
    26     9    25 ar  
    27    10    25 ar  
    28    10    26 1   
    29    11    12 ar  
    30    11    23 1   
    31    11    30 ar  
    32    12    27 1   
    33    12    28 ar  
    34    13    28 ar  
    35    13    29 ar  
    36    13    39 1   
    37    14    41 1   
    38    14    42 1   
    39    14    43 1   
    40    14    54 1   
    41    15    44 1   
    42    15    45 1   
    43    15    46 1   
    44    15    54 1   
    45    17    18 1   
    46    19    20 1   
    47    19    47 1   
    48    19    48 1   
    49    20    49 1   
    50    21    22 1   
    51    22    54 1   
    52    25    50 1   
    53    28    51 1   
    54    29    30 ar  
    55    29    52 1   
    56    30    31 1   
    57    40    54 1   
@<TRIPOS>SUBSTRUCTURE
     1 A1A         1 TEMP              0 ****  ****    0 ROOT
