@<TRIPOS>MOLECULE
A1A
   27    27     1     0     0
SMALL
abcg2


@<TRIPOS>ATOM
      1 C6         -41.9160    23.0940    13.9490 c3         1 A1A       0.078000
      2 C2         -44.8640    25.8250    16.0540 ca         1 A1A      -0.008500
      3 O2         -44.4450    29.6320    15.6550 o          1 A1A      -0.526000
      4 C4         -42.7450    24.7170    15.6850 ca         1 A1A      -0.027300
      5 C7         -41.7980    24.9410    12.3150 cs         1 A1A       0.366200
      6 C5         -41.9650    23.4610    15.4350 c3         1 A1A      -0.058100
      7 C8         -42.1140    25.9590    15.6860 ca         1 A1A      -0.122500
      8 C1         -44.2120    27.0520    16.0420 ca         1 A1A      -0.313500
      9 C3         -44.1250    24.6680    15.8730 ca         1 A1A      -0.122500
     10 C9         -42.8380    27.1270    15.8570 ca         1 A1A      -0.008500
     11 O1         -46.5300    28.2650    16.0000 o          1 A1A      -0.526000
     12 N1         -45.0860    28.8610    17.9290 n8         1 A1A      -0.993100
     13 N2         -41.2400    24.0970    13.1590 ns         1 A1A      -0.401900
     14 S1         -45.1390    28.5390    16.3140 sy         1 A1A       1.139600
     15 S2         -43.3970    25.0650    11.9070 s          1 A1A      -0.543400
     16 H7         -42.9200    22.9650    13.5490 h1         1 A1A       0.077200
     17 H8         -41.3830    22.1500    13.8290 h1         1 A1A       0.077200
     18 H3         -45.9340    25.7630    16.1970 ha         1 A1A       0.136500
     19 H10        -41.0660    25.6050    11.8580 h5         1 A1A       0.041200
     20 H5         -42.4190    22.6210    15.9640 hc         1 A1A       0.058200
     21 H6         -40.9470    23.5640    15.8160 hc         1 A1A       0.058200
     22 H11        -41.0420    26.0180    15.5480 ha         1 A1A       0.115000
     23 H4         -44.6330    23.7120    15.8750 ha         1 A1A       0.115000
     24 H12        -42.3280    28.0810    15.8460 ha         1 A1A       0.136500
     25 H1         -45.5340    28.1500    18.4970 hn         1 A1A       0.472500
     26 H2         -44.1530    29.0630    18.2720 hn         1 A1A       0.472500
     27 H9         -40.2400    24.1720    13.2850 hn         1 A1A       0.308500
@<TRIPOS>BOND
     1     1     6 1   
     2     1    13 1   
     3     1    16 1   
     4     1    17 1   
     5     2     8 ar  
     6     2     9 ar  
     7     2    18 1   
     8     3    14 2   
     9     4     6 1   
    10     4     7 ar  
    11     4     9 ar  
    12     5    13 1   
    13     5    15 2   
    14     5    19 1   
    15     6    20 1   
    16     6    21 1   
    17     7    10 ar  
    18     7    22 1   
    19     8    10 ar  
    20     8    14 1   
    21     9    23 1   
    22    10    24 1   
    23    11    14 2   
    24    12    14 1   
    25    12    25 1   
    26    12    26 1   
    27    13    27 1   
@<TRIPOS>SUBSTRUCTURE
     1 A1A         1 TEMP              0 ****  ****    0 ROOT
