@<TRIPOS>MOLECULE
A1A
   54    57     1     0     0
SMALL
abcg2


@<TRIPOS>ATOM
      1 C1          33.9140   -20.4580    21.6060 c3         1 A1A      -0.116100
      2 C2          33.5930   -21.8310    22.1700 c3         1 A1A       0.134000
      3 C4          31.1480   -22.1420    21.8370 c          1 A1A       0.574000
      4 C8          31.7710   -21.7860    23.9380 cc         1 A1A       0.368900
      5 C11         28.7380   -22.3060    22.4240 ca         1 A1A       0.076600
      6 C12         28.0020   -23.1570    23.2200 ca         1 A1A      -0.105000
      7 C15         24.5430   -24.3930    23.5090 cc         1 A1A      -0.029400
      8 C17         24.6140   -22.8800    21.6040 c          1 A1A       0.581600
      9 C19         26.0340   -22.7090    21.9110 ca         1 A1A      -0.143600
     10 C21         28.1040   -21.6450    21.3670 ca         1 A1A       0.160000
     11 C23         22.5620   -23.9290    22.2310 ca         1 A1A      -0.018400
     12 C24         22.1250   -24.8220    21.2650 ca         1 A1A       0.207000
     13 C27         19.8540   -24.3660    21.7910 ca         1 A1A      -0.065000
     14 C32         25.6590   -26.1770    25.4720 c3         1 A1A      -0.091100
     15 C33         26.6180   -23.9780    26.1860 c3         1 A1A      -0.091100
     16 N3          32.2290   -21.9250    22.6590 n          1 A1A      -0.321300
     17 N6          30.0870   -22.0740    22.7100 n          1 A1A      -0.079000
     18 N7          30.4880   -21.8800    23.9980 n2         1 A1A      -0.477300
     19 C9          32.6350   -21.5750    25.1290 c3         1 A1A       0.149300
     20 O10         33.3020   -20.3450    24.9880 oh         1 A1A      -0.649000
     21 C13         26.6360   -23.3720    22.9950 ca         1 A1A       0.016200
     22 C14         25.8430   -24.2540    23.8230 cd         1 A1A      -0.136400
     23 N16         23.9460   -23.7360    22.4500 n          1 A1A      -0.206200
     24 O18         24.0380   -22.3230    20.6860 o          1 A1A      -0.527000
     25 C20         26.7780   -21.8490    21.1000 ca         1 A1A      -0.084000
     26 F22         28.8000   -20.7800    20.6300 f          1 A1A      -0.154000
     27 F25         23.0440   -25.4720    20.5520 f          1 A1A      -0.157000
     28 C26         20.7860   -25.0530    21.0280 ca         1 A1A      -0.151000
     29 C28         20.2510   -23.4650    22.7670 ca         1 A1A      -0.120000
     30 C29         21.6040   -23.2500    22.9770 ca         1 A1A       0.149000
     31 CL30        22.1240   -22.1280    24.1740 cl         1 A1A      -0.169000
     32 H1          34.9470   -20.4360    21.2590 hc         1 A1A       0.053033
     33 H2          33.2720   -20.2150    20.7600 hc         1 A1A       0.053033
     34 H3          33.7930   -19.6890    22.3670 hc         1 A1A       0.053033
     35 H4          33.7250   -22.6010    21.4110 h1         1 A1A       0.056700
     36 H5          34.2650   -22.0810    22.9890 h1         1 A1A       0.056700
     37 H6          28.5100   -23.6590    24.0310 ha         1 A1A       0.137000
     38 H7          23.8730   -25.0320    24.0650 h4         1 A1A       0.207000
     39 H8          18.7990   -24.5360    21.6220 ha         1 A1A       0.126000
     40 H9          27.4400   -25.3140    24.7240 hc         1 A1A       0.053700
     41 H10         26.2070   -26.6920    26.2610 hc         1 A1A       0.037200
     42 H11         24.6860   -25.9050    25.8850 hc         1 A1A       0.037200
     43 H12         25.5000   -26.8860    24.6590 hc         1 A1A       0.037200
     44 H13         27.1360   -24.4610    27.0150 hc         1 A1A       0.037200
     45 H14         27.1890   -23.0900    25.9100 hc         1 A1A       0.037200
     46 H15         25.6420   -23.6450    26.5430 hc         1 A1A       0.037200
     47 H16         31.9890   -21.6060    26.0120 h1         1 A1A       0.049700
     48 H17         33.3360   -22.4140    25.2110 h1         1 A1A       0.049700
     49 H18         34.0770   -20.3520    25.5570 ho         1 A1A       0.453000
     50 H19         26.3080   -21.3220    20.2800 ha         1 A1A       0.158000
     51 H20         20.4820   -25.7580    20.2650 ha         1 A1A       0.141000
     52 H21         19.5180   -22.9320    23.3570 ha         1 A1A       0.138000
     53 O5          31.1420   -22.3720    20.6450 o          1 A1A      -0.529000
     54 C31         26.4480   -24.9540    25.0170 c3         1 A1A      -0.002500
@<TRIPOS>BOND
     1     1     2 1   
     2     1    32 1   
     3     1    33 1   
     4     1    34 1   
     5     2    16 1   
     6     2    35 1   
     7     2    36 1   
     8     3    16 1   
     9     3    17 1   
    10     3    53 2   
    11     4    16 1   
    12     4    18 2   
    13     4    19 1   
    14     5     6 ar  
    15     5    10 ar  
    16     5    17 1   
    17     6    21 ar  
    18     6    37 1   
    19     7    22 2   
    20     7    23 1   
    21     7    38 1   
    22     8     9 1   
    23     8    23 1   
    24     8    24 2   
    25     9    21 ar  
    26     9    25 ar  
    27    10    25 ar  
    28    10    26 1   
    29    11    12 ar  
    30    11    23 1   
    31    11    30 ar  
    32    12    27 1   
    33    12    28 ar  
    34    13    28 ar  
    35    13    29 ar  
    36    13    39 1   
    37    14    41 1   
    38    14    42 1   
    39    14    43 1   
    40    14    54 1   
    41    15    44 1   
    42    15    45 1   
    43    15    46 1   
    44    15    54 1   
    45    17    18 1   
    46    19    20 1   
    47    19    47 1   
    48    19    48 1   
    49    20    49 1   
    50    21    22 1   
    51    22    54 1   
    52    25    50 1   
    53    28    51 1   
    54    29    30 ar  
    55    29    52 1   
    56    30    31 1   
    57    40    54 1   
@<TRIPOS>SUBSTRUCTURE
     1 A1A         1 TEMP              0 ****  ****    0 ROOT
