@<TRIPOS>MOLECULE
A1A
   24    25     1     0     0
SMALL
No Charge or Current Charge


@<TRIPOS>ATOM
      1 N1          14.9800     9.5210    10.5750 na         1 A1A      -0.161800
      2 C4          14.5130    12.1570    14.5690 c3         1 A1A      -0.059800
      3 C5          14.7870    10.6240    12.5320 ca         1 A1A      -0.282600
      4 C6          14.6490    11.6090    11.4390 c          1 A1A       0.575600
      5 C7          14.2240     8.5790     9.7350 c3         1 A1A       0.047900
      6 C8          15.0060     9.3780    11.9620 ca         1 A1A       0.443500
      7 N           14.7430    10.8820    10.2810 ns         1 A1A      -0.414200
      8 C           15.3440     7.1360    14.8520 c3         1 A1A      -0.153400
      9 O           14.5360    12.8210    11.5230 o          1 A1A      -0.533000
     10 C1          15.1470     8.4050    14.0490 ca         1 A1A       0.417300
     11 C2          14.9320     9.6420    14.6910 ca         1 A1A      -0.223000
     12 C3          14.7460    10.8020    13.9200 ca         1 A1A       0.073700
     13 N2          15.1810     8.2670    12.7030 nb         1 A1A      -0.707000
     14 H5          15.3150    12.8580    14.3100 hc         1 A1A       0.058700
     15 H4          13.5630    12.5920    14.2390 hc         1 A1A       0.058700
     16 H6          14.4800    12.0810    15.6620 hc         1 A1A       0.058700
     17 H9          14.5660     7.5540     9.9290 h1         1 A1A       0.055700
     18 H8          13.1540     8.6510     9.9680 h1         1 A1A       0.055700
     19 H10         14.3820     8.8140     8.6750 h1         1 A1A       0.055700
     20 H7          15.0220    11.3180     9.4080 hn         1 A1A       0.339500
     21 H2          16.0580     6.4610    14.3650 hc         1 A1A       0.056033
     22 H1          15.7300     7.3560    15.8540 hc         1 A1A       0.056033
     23 H           14.3950     6.6000    14.9670 hc         1 A1A       0.056033
     24 H3          14.9110     9.6910    15.7750 ha         1 A1A       0.126000
@<TRIPOS>BOND
     1     1     5 1   
     2     1     6 1   
     3     1     7 1   
     4     2    12 1   
     5     2    14 1   
     6     2    15 1   
     7     2    16 1   
     8     3     4 1   
     9     3     6 ar  
    10     3    12 ar  
    11     4     7 1   
    12     4     9 2   
    13     5    17 1   
    14     5    18 1   
    15     5    19 1   
    16     6    13 ar  
    17     7    20 1   
    18     8    10 1   
    19     8    21 1   
    20     8    22 1   
    21     8    23 1   
    22    10    11 ar  
    23    10    13 ar  
    24    11    12 ar  
    25    11    24 1   
@<TRIPOS>SUBSTRUCTURE
     1 A1A         1 TEMP              0 ****  ****    0 ROOT
