@<TRIPOS>MOLECULE
A1A
   57    60     1     0     0
SMALL
No Charge or Current Charge


@<TRIPOS>ATOM
      1 C1          34.7500    19.3810     1.2600 c3         1 A1A      -0.115100
      2 C2          35.7150    18.2100     1.5160 c3         1 A1A       0.134000
      3 C4          34.5800    15.9810     1.4320 c          1 A1A       0.574000
      4 C8          34.8590    16.8050     3.4860 cc         1 A1A       0.367900
      5 C11         33.4490    13.8670     2.1780 ca         1 A1A       0.074600
      6 C12         33.9130    12.7200     2.8470 ca         1 A1A      -0.101000
      7 C15         33.1170     9.0450     3.1230 cc         1 A1A      -0.032400
      8 C17         31.5600    10.0240     1.5080 c          1 A1A       0.571600
      9 C19         32.2220    11.3530     1.7550 ca         1 A1A      -0.148600
     10 C21         32.3530    13.7530     1.3010 ca         1 A1A       0.160000
     11 C23         31.5280     7.5810     1.9750 ca         1 A1A       0.020600
     12 C24         30.1410     7.3630     2.1320 ca         1 A1A      -0.091000
     13 C27         31.8030     5.1860     1.5500 ca         1 A1A      -0.109000
     14 C31         35.7620     8.9270     4.3790 c3         1 A1A      -0.090600
     15 C32         34.5590    10.7530     5.6900 c3         1 A1A      -0.090600
     16 N3          35.0540    17.0470     2.1380 n          1 A1A      -0.320300
     17 N6          34.0870    15.1290     2.4230 n          1 A1A      -0.082000
     18 N7          34.2790    15.6460     3.7040 n2         1 A1A      -0.473300
     19 C9          35.2900    17.7450     4.6040 c3         1 A1A       0.148300
     20 O10         34.3580    18.8260     4.8240 oh         1 A1A      -0.649000
     21 C13         33.3170    11.4520     2.6390 ca         1 A1A       0.014200
     22 C14         33.7940    10.2340     3.3350 cd         1 A1A      -0.147400
     23 N16         32.0450     8.9080     2.2340 n          1 A1A      -0.213200
     24 O18         30.6550     9.9180     0.6870 o          1 A1A      -0.533000
     25 C20         31.7470    12.5080     1.0910 ca         1 A1A      -0.086000
     26 F22         31.8440    14.8420     0.6800 f          1 A1A      -0.156000
     27 C25         29.5900     6.0800     1.9880 ca         1 A1A      -0.110000
     28 C26         30.4210     4.9900     1.6980 ca         1 A1A      -0.097000
     29 C28         32.3710     6.4690     1.6900 ca         1 A1A      -0.051300
     30 C29         33.8730     6.6130     1.4370 c3         1 A1A      -0.050800
     31 H1          35.2830    20.2160     0.7910 hc         1 A1A       0.052367
     32 H2          33.9380    19.0710     0.5920 hc         1 A1A       0.052367
     33 H3          34.3100    19.7380     2.1980 hc         1 A1A       0.052367
     34 H4          36.1630    17.9010     0.5630 h1         1 A1A       0.055700
     35 H5          36.5330    18.5490     2.1630 h1         1 A1A       0.055700
     36 H6          34.7440    12.8420     3.5320 ha         1 A1A       0.136000
     37 H7          33.3330     8.1120     3.6280 h4         1 A1A       0.206000
     38 H8          29.4860     8.1930     2.3860 ha         1 A1A       0.125000
     39 H9          32.4360     4.3330     1.3170 ha         1 A1A       0.116000
     40 H10         35.7270    10.9770     3.9030 hc         1 A1A       0.052700
     41 H11         36.6970     9.0650     4.9340 hc         1 A1A       0.036533
     42 H12         35.1800     8.1570     4.8990 hc         1 A1A       0.036533
     43 H13         36.0180     8.5590     3.3780 hc         1 A1A       0.036533
     44 H14         35.4280    10.8380     6.3530 hc         1 A1A       0.036533
     45 H15         34.0780    11.7360     5.6330 hc         1 A1A       0.036533
     46 H16         33.8480    10.0520     6.1430 hc         1 A1A       0.036533
     47 H17         35.4000    17.1540     5.5230 h1         1 A1A       0.048200
     48 H18         36.2850    18.1420     4.3660 h1         1 A1A       0.048200
     49 H19         34.6930    19.3470     5.5880 ho         1 A1A       0.453000
     50 H20         30.8990    12.4470     0.4130 ha         1 A1A       0.158000
     51 H21         28.5190     5.9310     2.1120 ha         1 A1A       0.119000
     52 H22         29.9970     3.9950     1.5880 ha         1 A1A       0.116000
     53 H23         34.1230     7.5870     1.0020 hc         1 A1A       0.049033
     54 H24         34.4460     6.4910     2.3630 hc         1 A1A       0.049033
     55 H25         34.2300     5.8530     0.7310 hc         1 A1A       0.049033
     56 O5          34.6080    15.8120     0.2200 o          1 A1A      -0.533000
     57 C30         34.9870    10.2660     4.2880 c3         1 A1A      -0.001500
@<TRIPOS>BOND
     1     1     2 1   
     2     1    31 1   
     3     1    32 1   
     4     1    33 1   
     5     2    16 1   
     6     2    34 1   
     7     2    35 1   
     8     3    16 1   
     9     3    17 1   
    10     3    56 2   
    11     4    16 1   
    12     4    18 2   
    13     4    19 1   
    14     5     6 ar  
    15     5    10 ar  
    16     5    17 1   
    17     6    21 ar  
    18     6    36 1   
    19     7    22 2   
    20     7    23 1   
    21     7    37 1   
    22     8     9 1   
    23     8    23 1   
    24     8    24 2   
    25     9    21 ar  
    26     9    25 ar  
    27    10    25 ar  
    28    10    26 1   
    29    11    12 ar  
    30    11    23 1   
    31    11    29 ar  
    32    12    27 ar  
    33    12    38 1   
    34    13    28 ar  
    35    13    29 ar  
    36    13    39 1   
    37    14    41 1   
    38    14    42 1   
    39    14    43 1   
    40    14    57 1   
    41    15    44 1   
    42    15    45 1   
    43    15    46 1   
    44    15    57 1   
    45    17    18 1   
    46    19    20 1   
    47    19    47 1   
    48    19    48 1   
    49    20    49 1   
    50    21    22 1   
    51    22    57 1   
    52    25    50 1   
    53    27    28 ar  
    54    27    51 1   
    55    28    52 1   
    56    29    30 1   
    57    30    53 1   
    58    30    54 1   
    59    30    55 1   
    60    40    57 1   
@<TRIPOS>SUBSTRUCTURE
     1 A1A         1 TEMP              0 ****  ****    0 ROOT
