@<TRIPOS>MOLECULE
A1A
   30    31     1     0     0
SMALL
abcg2


@<TRIPOS>ATOM
      1 N1          16.6810     1.8030    14.7360 nb         1 A1A      -0.631000
      2 C4          16.3400    -1.9140    20.4490 c6         1 A1A      -0.097400
      3 C5          15.7750    -1.9970    19.0380 c6         1 A1A       0.094000
      4 C6          16.9920    -1.0180    17.1850 c          1 A1A       0.521600
      5 C7          17.3230     0.1900    16.3500 ca         1 A1A       0.248500
      6 C8          16.3620     0.8260    15.5710 ca         1 A1A       0.308900
      7 C10         18.9170     1.5240    15.4650 ca         1 A1A       0.286900
      8 N           16.1810    -0.8460    18.2410 n          1 A1A      -0.400800
      9 C           14.3140     0.7150    18.7040 c3         1 A1A      -0.102100
     10 O           17.4560    -2.0910    16.8290 o          1 A1A      -0.575100
     11 C1          15.8150     0.4630    18.7940 c6         1 A1A       0.117700
     12 C2          16.3580     0.5770    20.2220 c6         1 A1A      -0.091400
     13 C3          15.9470    -0.5960    21.1050 c6         1 A1A      -0.073400
     14 C9          17.9570     2.1570    14.6870 ca         1 A1A       0.291900
     15 N2          18.6030     0.5330    16.2860 nb         1 A1A      -0.601000
     16 H9          15.9710    -2.7620    21.0290 hc         1 A1A       0.052700
     17 H10         16.1040    -2.9040    18.5380 h1         1 A1A       0.060700
     18 H11         14.6830    -2.0300    19.0750 h1         1 A1A       0.060700
     19 H12         15.3190     0.5320    15.6220 h4         1 A1A       0.036100
     20 H14         19.9570     1.8230    15.4160 h4         1 A1A       0.035100
     21 H2          13.9620     0.6110    17.6770 hc         1 A1A       0.042367
     22 H1          13.7320     0.0400    19.3290 hc         1 A1A       0.042367
     23 H           14.0990     1.7320    19.0310 hc         1 A1A       0.042367
     24 H3          16.3140     1.2300    18.2020 h1         1 A1A       0.056700
     25 H4          17.4500     0.6250    20.1720 hc         1 A1A       0.050700
     26 H5          16.0210     1.5230    20.6510 hc         1 A1A       0.050700
     27 H6          16.4170    -0.5010    22.0860 hc         1 A1A       0.042700
     28 H7          14.8670    -0.5810    21.2770 hc         1 A1A       0.042700
     29 H13         18.2320     2.9590    14.0120 h4         1 A1A       0.032100
     30 H8          17.4290    -2.0030    20.4080 hc         1 A1A       0.052700
@<TRIPOS>BOND
     1     1     6 ar  
     2     1    14 ar  
     3     2     3 1   
     4     2    13 1   
     5     2    16 1   
     6     2    30 1   
     7     3     8 1   
     8     3    17 1   
     9     3    18 1   
    10     4     5 1   
    11     4     8 1   
    12     4    10 2   
    13     5     6 ar  
    14     5    15 ar  
    15     6    19 1   
    16     7    14 ar  
    17     7    15 ar  
    18     7    20 1   
    19     8    11 1   
    20     9    11 1   
    21     9    21 1   
    22     9    22 1   
    23     9    23 1   
    24    11    12 1   
    25    11    24 1   
    26    12    13 1   
    27    12    25 1   
    28    12    26 1   
    29    13    27 1   
    30    13    28 1   
    31    14    29 1   
@<TRIPOS>SUBSTRUCTURE
     1 A1A         1 TEMP              0 ****  ****    0 ROOT
