@<TRIPOS>MOLECULE
A1A
   24    25     1     0     0
SMALL
abcg2


@<TRIPOS>ATOM
      1 N1          14.9330     9.5540    10.6260 na         1 A1A      -0.161800
      2 C4          14.5640    12.1450    14.6370 c3         1 A1A      -0.059800
      3 C5          14.7340    10.7120    12.5570 ca         1 A1A      -0.282600
      4 C6          14.5450    11.6530    11.4640 c          1 A1A       0.575600
      5 C7          14.3940     8.5170     9.7720 c3         1 A1A       0.047900
      6 C8          14.9320     9.4570    11.9870 ca         1 A1A       0.443500
      7 N           14.5580    10.8610    10.3400 ns         1 A1A      -0.414200
      8 C           15.2770     7.1690    14.7610 c3         1 A1A      -0.153400
      9 O           14.4080    12.8670    11.4650 o          1 A1A      -0.533000
     10 C1          15.1010     8.4280    13.9690 ca         1 A1A       0.417300
     11 C2          14.9470     9.6520    14.6430 ca         1 A1A      -0.223000
     12 C3          14.7510    10.8340    13.9470 ca         1 A1A       0.073700
     13 N2          15.0910     8.3190    12.6460 nb         1 A1A      -0.707000
     14 H5          15.3720    12.8330    14.3860 hc         1 A1A       0.058700
     15 H4          13.6330    12.6200    14.3270 hc         1 A1A       0.058700
     16 H6          14.5460    12.0200    15.7170 hc         1 A1A       0.058700
     17 H9          14.7930     7.5630    10.1030 h1         1 A1A       0.055700
     18 H8          13.3030     8.4830     9.8050 h1         1 A1A       0.055700
     19 H10         14.7190     8.6840     8.7470 h1         1 A1A       0.055700
     20 H7          14.8410    11.2230     9.4380 hn         1 A1A       0.339500
     21 H2          15.4950     6.3250    14.1110 hc         1 A1A       0.056033
     22 H1          16.0850     7.2740    15.4850 hc         1 A1A       0.056033
     23 H           14.3710     6.9410    15.3270 hc         1 A1A       0.056033
     24 H3          14.9700     9.6610    15.7250 ha         1 A1A       0.126000
@<TRIPOS>BOND
     1     1     5 1   
     2     1     6 1   
     3     1     7 1   
     4     2    12 1   
     5     2    14 1   
     6     2    15 1   
     7     2    16 1   
     8     3     4 1   
     9     3     6 ar  
    10     3    12 ar  
    11     4     7 1   
    12     4     9 2   
    13     5    17 1   
    14     5    18 1   
    15     5    19 1   
    16     6    13 ar  
    17     7    20 1   
    18     8    10 1   
    19     8    21 1   
    20     8    22 1   
    21     8    23 1   
    22    10    11 ar  
    23    10    13 ar  
    24    11    12 ar  
    25    11    24 1   
@<TRIPOS>SUBSTRUCTURE
     1 A1A         1 TEMP              0 ****  ****    0 ROOT
