@<TRIPOS>MOLECULE
A1A
   24    28     1     0     0
SMALL
abcg2


@<TRIPOS>ATOM
      1 C4          -5.3080    -4.0930    21.1730 cy         1 A1A       0.020000
      2 C6          -6.3890    -5.1470    21.5340 cy         1 A1A       0.098750
      3 C12         -6.3530    -3.0790    23.1340 cy         1 A1A       0.098750
      4 C21         -7.4340    -4.1300    23.4930 cy         1 A1A       0.099000
      5 C2          -4.2280    -4.0910    22.2650 c5         1 A1A       0.495000
      6 O1          -3.3640    -5.1510    22.2190 oh         1 A1A      -0.600500
      7 C10         -5.2350    -4.1150    23.4230 cy         1 A1A       0.020000
      8 C14         -6.4070    -3.0660    21.5490 cy         1 A1A       0.098750
      9 C16         -7.5060    -4.1130    21.2470 cy         1 A1A       0.099000
     10 C8          -6.3390    -5.1610    23.1170 cy         1 A1A       0.098750
     11 O3          -3.3980    -3.0020    22.2550 oh         1 A1A      -0.600500
     12 CL11        -4.5620    -4.1220    25.0150 cl         1 A1A      -0.117000
     13 CL13        -6.3480    -1.5530    23.9330 cl         1 A1A      -0.117500
     14 CL15        -6.4660    -1.5270    20.7750 cl         1 A1A      -0.117500
     15 CL17        -8.1850    -4.1070    19.6620 cl         1 A1A      -0.108000
     16 CL22        -8.0070    -4.1460    25.1190 cl         1 A1A      -0.108000
     17 CL5         -4.7360    -4.0760    19.5420 cl         1 A1A      -0.117000
     18 CL7         -6.4160    -6.6730    20.7330 cl         1 A1A      -0.117500
     19 CL9         -6.3200    -6.7000    23.8930 cl         1 A1A      -0.117500
     20 H1          -3.7950    -6.0100    22.2910 ho         1 A1A       0.485000
     21 H3          -3.8630    -2.1570    22.2590 ho         1 A1A       0.485000
     22 C18         -8.4780    -4.1290    22.4030 c5         1 A1A       0.313000
     23 CL19        -9.4650    -2.6800    22.4460 cl         1 A1A      -0.145000
     24 CL20        -9.4440    -5.5920    22.4220 cl         1 A1A      -0.145000
@<TRIPOS>BOND
     1     1     2 1   
     2     1     5 1   
     3     1     8 1   
     4     1    17 1   
     5     2     9 1   
     6     2    10 1   
     7     2    18 1   
     8     3     4 1   
     9     3     7 1   
    10     3     8 1   
    11     3    13 1   
    12     4    10 1   
    13     4    16 1   
    14     4    22 1   
    15     5     6 1   
    16     5     7 1   
    17     5    11 1   
    18     6    20 1   
    19     7    10 1   
    20     7    12 1   
    21     8     9 1   
    22     8    14 1   
    23     9    15 1   
    24     9    22 1   
    25    10    19 1   
    26    11    21 1   
    27    22    23 1   
    28    22    24 1   
@<TRIPOS>SUBSTRUCTURE
     1 A1A         1 TEMP              0 ****  ****    0 ROOT
