@<TRIPOS>MOLECULE
A1A
   27    27     1     0     0
SMALL
abcg2


@<TRIPOS>ATOM
      1 C7         -14.2450    32.8100     9.3590 cs         1 A1A       0.368200
      2 C8         -16.5140    35.1780    10.8580 ca         1 A1A      -0.071500
      3 C9         -17.1350    36.3880    11.1020 ca         1 A1A      -0.129500
      4 N2         -14.1470    33.2580    10.5940 ns         1 A1A      -0.393900
      5 C2         -17.0610    36.9780    12.3630 ca         1 A1A       0.300000
      6 C3         -16.3610    36.3320    13.3750 ca         1 A1A      -0.129500
      7 C4         -15.7640    35.1030    13.1250 ca         1 A1A      -0.071500
      8 C5         -15.8280    34.5110    11.8720 ca         1 A1A      -0.129300
      9 C6         -15.1730    33.1800    11.6140 c3         1 A1A       0.124300
     10 C1         -19.4140    39.9840    13.4970 c3         1 A1A      -0.352100
     11 O1         -17.1470    39.4750    14.7250 o          1 A1A      -0.530000
     12 O2         -18.8710    37.6730    14.6770 o          1 A1A      -0.530000
     13 S1         -18.2130    38.7850    14.0100 s6         1 A1A       1.204100
     14 S2         -15.5420    32.0590     8.6550 s          1 A1A      -0.566400
     15 H10        -13.3350    32.9790     8.7880 h5         1 A1A       0.042200
     16 H11        -16.5840    34.7380     9.8700 ha         1 A1A       0.126000
     17 H12        -17.6860    36.8840    10.3120 ha         1 A1A       0.126500
     18 H9         -13.2830    33.7120    10.8550 hn         1 A1A       0.313500
     19 H4         -17.4170    38.9590    11.8900 hn         1 A1A       0.493000
     20 H5         -16.2460    36.7770    14.3540 ha         1 A1A       0.126500
     21 H6         -15.2260    34.6110    13.9250 ha         1 A1A       0.126000
     22 H7         -15.9060    32.4420    11.2880 h1         1 A1A       0.081700
     23 H8         -14.7110    32.8050    12.5280 h1         1 A1A       0.081700
     24 H2         -19.8170    40.4410    14.3990 h1         1 A1A       0.106367
     25 H1         -18.9320    40.7450    12.8860 h1         1 A1A       0.106367
     26 H3         -20.2040    39.4890    12.9380 h1         1 A1A       0.106367
     27 N1         -17.7010    38.2270    12.5320 nu         1 A1A      -0.930100
@<TRIPOS>BOND
     1     1     4 1   
     2     1    14 2   
     3     1    15 1   
     4     2     3 ar  
     5     2     8 ar  
     6     2    16 1   
     7     3     5 ar  
     8     3    17 1   
     9     4     9 1   
    10     4    18 1   
    11     5     6 ar  
    12     5    27 1   
    13     6     7 ar  
    14     6    20 1   
    15     7     8 ar  
    16     7    21 1   
    17     8     9 1   
    18     9    22 1   
    19     9    23 1   
    20    10    13 1   
    21    10    24 1   
    22    10    25 1   
    23    10    26 1   
    24    11    13 2   
    25    12    13 2   
    26    13    27 1   
    27    19    27 1   
@<TRIPOS>SUBSTRUCTURE
     1 A1A         1 TEMP              0 ****  ****    0 ROOT
