@<TRIPOS>MOLECULE
A1A
   21    22     1     0     0
SMALL
No Charge or Current Charge


@<TRIPOS>ATOM
      1 C4          14.6420    10.8340    11.1600 ca         1 A1A       0.134100
      2 C5          15.1870     9.4970     9.4400 c5         1 A1A       0.148600
      3 C6          15.3500     8.6190    10.7380 c5         1 A1A      -0.052100
      4 C7          15.1210     9.6910    11.7540 ca         1 A1A      -0.177300
      5 C8          15.3140     9.6240    13.1430 ca         1 A1A      -0.031000
      6 O           16.5170    11.1580    15.7780 oh         1 A1A      -0.655000
      7 C1          15.0060    10.7570    13.9290 ca         1 A1A      -0.128300
      8 C2          14.5080    11.9280    13.3080 ca         1 A1A      -0.059000
      9 C3          14.3190    11.9690    11.9120 ca         1 A1A      -0.143000
     10 O1          14.4940    10.7390     9.8050 os         1 A1A      -0.333100
     11 H6          14.6320     8.9790     8.6460 h1         1 A1A       0.056700
     12 H5          16.1730     9.7680     9.0400 h1         1 A1A       0.056700
     13 H8          14.5950     7.8270    10.7930 hc         1 A1A       0.062200
     14 H7          16.3410     8.1570    10.8060 hc         1 A1A       0.062200
     15 H9          15.6910     8.7130    13.6030 ha         1 A1A       0.117000
     16 H2          15.0400     9.6880    15.7960 h1         1 A1A       0.021700
     17 H1          14.4470    11.3520    15.9200 h1         1 A1A       0.021700
     18 H           16.5850    11.1120    16.7570 ho         1 A1A       0.439000
     19 H3          14.2670    12.8030    13.9090 ha         1 A1A       0.113000
     20 H4          13.9330    12.8620    11.4270 ha         1 A1A       0.130000
     21 C           15.2000    10.7140    15.4380 c3         1 A1A       0.214900
@<TRIPOS>BOND
     1     1     4 ar  
     2     1     9 ar  
     3     1    10 1   
     4     2     3 1   
     5     2    10 1   
     6     2    11 1   
     7     2    12 1   
     8     3     4 1   
     9     3    13 1   
    10     3    14 1   
    11     4     5 ar  
    12     5     7 ar  
    13     5    15 1   
    14     6    18 1   
    15     6    21 1   
    16     7     8 ar  
    17     7    21 1   
    18     8     9 ar  
    19     8    19 1   
    20     9    20 1   
    21    16    21 1   
    22    17    21 1   
@<TRIPOS>SUBSTRUCTURE
     1 A1A         1 TEMP              0 ****  ****    0 ROOT
