@<TRIPOS>MOLECULE
A1A
   16    16     1     0     0
SMALL
No Charge or Current Charge


@<TRIPOS>ATOM
      1 C4           7.7210     7.7040    15.7080 c1         1 A1A       0.275900
      2 N            8.4450     8.3680    15.0840 n1         1 A1A      -0.411000
      3 C            4.7440     8.2270    16.0630 c5         1 A1A      -0.284400
      4 O            5.9530    10.1420    17.5830 o          1 A1A      -0.503000
      5 C1           5.3450     6.7890    15.9320 c5         1 A1A      -0.055400
      6 C2           6.7860     6.8970    16.5340 c5         1 A1A       0.012400
      7 C3           6.5220     7.4960    17.9560 c5         1 A1A      -0.288400
      8 O1           4.1860     8.6900    18.7000 o          1 A1A      -0.503000
      9 S            5.2750     8.8490    17.7280 s6         1 A1A       1.050000
     10 H            3.6490     8.2540    16.0280 h1         1 A1A       0.114700
     11 H1           5.1520     8.9320    15.3290 h1         1 A1A       0.114700
     12 H2           4.7460     6.0590    16.4910 hc         1 A1A       0.071700
     13 H3           5.3550     6.4440    14.8900 hc         1 A1A       0.071700
     14 H4           7.2430     5.9030    16.6160 hc         1 A1A       0.099700
     15 H6           6.0550     6.7710    18.6330 h1         1 A1A       0.117700
     16 H5           7.4070     7.9290    18.4360 h1         1 A1A       0.117700
@<TRIPOS>BOND
     1     1     2 3   
     2     1     6 1   
     3     3     5 1   
     4     3     9 1   
     5     3    10 1   
     6     3    11 1   
     7     4     9 2   
     8     5     6 1   
     9     5    12 1   
    10     5    13 1   
    11     6     7 1   
    12     6    14 1   
    13     7     9 1   
    14     7    15 1   
    15     7    16 1   
    16     8     9 2   
@<TRIPOS>SUBSTRUCTURE
     1 A1A         1 TEMP              0 ****  ****    0 ROOT
