@<TRIPOS>MOLECULE
A1A
   52    56     1     0     0
SMALL
abcg2


@<TRIPOS>ATOM
      1 N6          19.7930   -23.1390    27.1610 nb         1 A1A      -0.218000
      2 N4          20.3830   -25.4420    27.2610 nb         1 A1A      -0.173000
      3 C14         16.1150   -25.5060    23.4140 c5         1 A1A      -0.023100
      4 C13         18.7360   -25.9890    25.1170 c6         1 A1A       0.215300
      5 C12         17.3230   -26.4220    25.4830 c6         1 A1A      -0.094900
      6 C17         14.8370   -25.7690    25.4640 c5         1 A1A       0.212800
      7 C16         13.9750   -25.1740    24.3810 ca         1 A1A      -0.098300
      8 C15         14.6990   -25.0570    23.1990 ca         1 A1A      -0.067300
      9 C11         16.2690   -25.4520    24.9530 c5         1 A1A      -0.042000
     10 N3          21.1180   -25.2280    28.3060 nb         1 A1A      -0.191000
     11 C10         16.6410   -24.0270    25.3930 c6         1 A1A      -0.094900
     12 C22         12.6410   -24.8090    24.4380 ca         1 A1A      -0.093000
     13 C5          19.7290   -24.4010    26.6960 ca         1 A1A       0.342900
     14 C1          20.5360   -22.9500    28.2160 ca         1 A1A       0.168900
     15 C19         14.0940   -24.5640    22.0550 ca         1 A1A      -0.101000
     16 C20         12.7520   -24.1960    22.1060 ca         1 A1A      -0.104000
     17 C21         12.0300   -24.3160    23.2880 ca         1 A1A      -0.115000
     18 C2          21.2250   -24.0110    28.8110 ca         1 A1A       0.190300
     19 C23         23.7350   -23.3140    29.6770 ca         1 A1A      -0.033000
     20 C24         24.0840   -23.2990    28.3260 ca         1 A1A      -0.221000
     21 C25         25.3620   -22.8900    28.0030 ca         1 A1A       0.402900
     22 C27         25.9680   -22.5270    30.1770 ca         1 A1A       0.631900
     23 C28         24.6890   -22.9320    30.6030 ca         1 A1A      -0.015000
     24 C9          18.0790   -23.6570    25.0520 c6         1 A1A       0.215300
     25 N18         14.5920   -27.2080    25.5080 n8         1 A1A      -0.991200
     26 N26         26.2780   -22.5120    28.8830 nb         1 A1A      -0.749000
     27 N29         26.9380   -22.1780    31.0560 nv         1 A1A      -1.054900
     28 N8          18.9920   -24.6440    25.6080 nh         1 A1A      -0.741300
     29 S7          22.1550   -23.8020    30.2870 ss         1 A1A      -0.052300
     30 CL1         24.3140   -22.9560    32.2930 cl         1 A1A      -0.186000
     31 H1          16.2500   -26.5300    23.0510 hc         1 A1A       0.058700
     32 H2          16.8380   -24.8900    22.8780 hc         1 A1A       0.058700
     33 H3          18.8620   -25.9770    24.0310 h1         1 A1A       0.070950
     34 H4          19.4700   -26.6770    25.5230 h1         1 A1A       0.070950
     35 H5          17.1500   -27.4250    25.0870 hc         1 A1A       0.058950
     36 H6          17.2510   -26.4910    26.5750 hc         1 A1A       0.058950
     37 H7          14.6650   -25.2830    26.4350 h1         1 A1A       0.033700
     38 H8          16.5100   -23.9390    26.4770 hc         1 A1A       0.058950
     39 H9          15.9700   -23.2940    24.9360 hc         1 A1A       0.058950
     40 H10         12.0790   -24.8950    25.3600 ha         1 A1A       0.111000
     41 H11         20.6050   -21.9440    28.6180 h4         1 A1A       0.044100
     42 H12         14.6520   -24.4590    21.1320 ha         1 A1A       0.114000
     43 H13         12.2680   -23.8040    21.2200 ha         1 A1A       0.113000
     44 H14         10.9890   -24.0180    23.3150 ha         1 A1A       0.113000
     45 H15         23.3950   -23.5950    27.5500 ha         1 A1A       0.132000
     46 H16         25.6640   -22.8660    26.9620 h4         1 A1A       0.020100
     47 H17         18.3220   -22.6710    25.4350 h1         1 A1A       0.070950
     48 H18         18.2330   -23.6300    23.9700 h1         1 A1A       0.070950
     49 H19         15.0600   -27.6070    26.3130 hn         1 A1A       0.397000
     50 H20         13.6040   -27.3700    25.6630 hn         1 A1A       0.397000
     51 H22         27.7410   -21.7110    30.6690 hn         1 A1A       0.485000
     52 H23         26.6870   -21.8920    31.9880 hn         1 A1A       0.485000
@<TRIPOS>BOND
     1     1    13 ar  
     2     1    14 ar  
     3     2    10 ar  
     4     2    13 ar  
     5     3     8 1   
     6     3     9 1   
     7     3    31 1   
     8     3    32 1   
     9     4     5 1   
    10     4    28 1   
    11     4    33 1   
    12     4    34 1   
    13     5     9 1   
    14     5    35 1   
    15     5    36 1   
    16     6     7 1   
    17     6     9 1   
    18     6    25 1   
    19     6    37 1   
    20     7     8 ar  
    21     7    12 ar  
    22     8    15 ar  
    23     9    11 1   
    24    10    18 ar  
    25    11    24 1   
    26    11    38 1   
    27    11    39 1   
    28    12    17 ar  
    29    12    40 1   
    30    13    28 1   
    31    14    18 ar  
    32    14    41 1   
    33    15    16 ar  
    34    15    42 1   
    35    16    17 ar  
    36    16    43 1   
    37    17    44 1   
    38    18    29 1   
    39    19    20 ar  
    40    19    23 ar  
    41    19    29 1   
    42    20    21 ar  
    43    20    45 1   
    44    21    26 ar  
    45    21    46 1   
    46    22    23 ar  
    47    22    26 ar  
    48    22    27 1   
    49    23    30 1   
    50    24    28 1   
    51    24    47 1   
    52    24    48 1   
    53    25    49 1   
    54    25    50 1   
    55    27    51 1   
    56    27    52 1   
@<TRIPOS>SUBSTRUCTURE
     1 A1A         1 TEMP              0 ****  ****    0 ROOT
