@<TRIPOS>MOLECULE
A1A
   27    27     1     0     0
SMALL
No Charge or Current Charge


@<TRIPOS>ATOM
      1 C7         -13.5440    33.3770     9.6480 cs         1 A1A       0.368200
      2 C8         -16.8440    34.9840    10.7610 ca         1 A1A      -0.071500
      3 C9         -17.5260    36.1690    11.0900 ca         1 A1A      -0.129500
      4 N2         -13.9880    33.3010    10.9440 ns         1 A1A      -0.393900
      5 C2         -17.4720    36.6920    12.3930 ca         1 A1A       0.300000
      6 C3         -16.7280    36.0040    13.3720 ca         1 A1A      -0.129500
      7 C4         -16.0430    34.8190    13.0480 ca         1 A1A      -0.071500
      8 C5         -16.0970    34.3030    11.7400 ca         1 A1A      -0.129300
      9 C6         -15.3550    33.0220    11.3870 c3         1 A1A       0.124300
     10 C1         -19.0640    40.2730    13.5700 c3         1 A1A      -0.352100
     11 O1         -16.5380    39.4740    13.6540 o          1 A1A      -0.530000
     12 O2         -18.2480    38.2970    15.1290 o          1 A1A      -0.530000
     13 S1         -17.8940    38.9690    13.8770 s6         1 A1A       1.204100
     14 S2         -14.5110    33.1380     8.2970 s          1 A1A      -0.566400
     15 H10        -12.4790    33.6090     9.5860 h5         1 A1A       0.042200
     16 H11        -16.8950    34.5980     9.7450 ha         1 A1A       0.126000
     17 H12        -18.1010    36.6810    10.3230 ha         1 A1A       0.126500
     18 H9         -13.2940    33.4720    11.6660 hn         1 A1A       0.313500
     19 H4         -18.4730    38.4050    11.8630 hn         1 A1A       0.493000
     20 H5         -16.6720    36.3740    14.3900 ha         1 A1A       0.126500
     21 H6         -15.4710    34.3030    13.8170 ha         1 A1A       0.126000
     22 H7         -15.9000    32.4750    10.6060 h1         1 A1A       0.081700
     23 H8         -15.3110    32.3670    12.2680 h1         1 A1A       0.081700
     24 H2         -18.9380    41.0140    14.3660 h1         1 A1A       0.106367
     25 H1         -18.8390    40.7060    12.5910 h1         1 A1A       0.106367
     26 H3         -20.0650    39.8320    13.5970 h1         1 A1A       0.106367
     27 N1         -18.1710    37.8670    12.6630 nu         1 A1A      -0.930100
@<TRIPOS>BOND
     1     1     4 1   
     2     1    14 2   
     3     1    15 1   
     4     2     3 ar  
     5     2     8 ar  
     6     2    16 1   
     7     3     5 ar  
     8     3    17 1   
     9     4     9 1   
    10     4    18 1   
    11     5     6 ar  
    12     5    27 1   
    13     6     7 ar  
    14     6    20 1   
    15     7     8 ar  
    16     7    21 1   
    17     8     9 1   
    18     9    22 1   
    19     9    23 1   
    20    10    13 1   
    21    10    24 1   
    22    10    25 1   
    23    10    26 1   
    24    11    13 2   
    25    12    13 2   
    26    13    27 1   
    27    19    27 1   
@<TRIPOS>SUBSTRUCTURE
     1 A1A         1 TEMP              0 ****  ****    0 ROOT
