@<TRIPOS>MOLECULE
A1A
   16    16     1     0     0
SMALL
abcg2


@<TRIPOS>ATOM
      1 C4           7.6950     7.7390    15.8180 c1         1 A1A       0.275900
      2 N            8.4170     8.3830    15.1970 n1         1 A1A      -0.411000
      3 C            4.6780     8.1740    16.1070 c5         1 A1A      -0.284400
      4 O            6.1220    10.0450    17.3660 o          1 A1A      -0.503000
      5 C1           5.3900     6.8430    15.8820 c5         1 A1A      -0.055400
      6 C2           6.7640     6.9100    16.5780 c5         1 A1A       0.012400
      7 C3           6.4930     7.4820    17.9670 c5         1 A1A      -0.288400
      8 O1           4.3230     8.9060    18.6990 o          1 A1A      -0.503000
      9 S            5.3440     8.8440    17.6600 s6         1 A1A       1.050000
     10 H            3.6000     8.0670    16.2110 h1         1 A1A       0.114700
     11 H1           4.8920     8.9030    15.3260 h1         1 A1A       0.114700
     12 H2           4.8300     6.0310    16.3450 hc         1 A1A       0.071700
     13 H3           5.4840     6.6210    14.8210 hc         1 A1A       0.071700
     14 H4           7.2000     5.9130    16.6610 hc         1 A1A       0.099700
     15 H6           5.9870     6.7340    18.5770 h1         1 A1A       0.117700
     16 H5           7.3660     7.8620    18.4950 h1         1 A1A       0.117700
@<TRIPOS>BOND
     1     1     2 3   
     2     1     6 1   
     3     3     5 1   
     4     3     9 1   
     5     3    10 1   
     6     3    11 1   
     7     4     9 2   
     8     5     6 1   
     9     5    12 1   
    10     5    13 1   
    11     6     7 1   
    12     6    14 1   
    13     7     9 1   
    14     7    15 1   
    15     7    16 1   
    16     8     9 2   
@<TRIPOS>SUBSTRUCTURE
     1 A1A         1 TEMP              0 ****  ****    0 ROOT
