@<TRIPOS>MOLECULE
A1A
   33    35     1     0     0
SMALL
No Charge or Current Charge


@<TRIPOS>ATOM
      1 C2         -16.3860    27.7110    19.6220 c          1 A1A       0.610100
      2 C4         -15.4130    25.3580    19.9860 ca         1 A1A       0.015000
      3 C5         -16.0630    25.0010    21.1870 ca         1 A1A      -0.165500
      4 C6         -15.8160    23.7530    21.7870 ca         1 A1A      -0.033000
      5 C7         -14.9160    22.8510    21.1970 ca         1 A1A      -0.195000
      6 C14         -9.5950    20.5860    21.3960 cc         1 A1A       0.568700
      7 C19        -11.2500    23.0010    23.4090 cc         1 A1A      -0.013000
      8 O21        -17.0980    27.8180    20.6130 o          1 A1A      -0.566100
      9 C1         -16.2860    28.8340    18.5940 c3         1 A1A      -0.184100
     10 C11        -12.9010    21.6590    22.2550 cd         1 A1A       0.402300
     11 C18        -10.3010    22.1920    22.7290 cc         1 A1A      -0.153000
     12 C20        -12.5760    22.7290    23.1740 cd         1 A1A      -0.152000
     13 C8         -14.2700    23.1950    19.9970 ca         1 A1A      -0.033000
     14 C9         -14.5190    24.4420    19.4000 ca         1 A1A      -0.165500
     15 N12        -12.0370    20.8560    21.6150 nc         1 A1A      -0.441800
     16 N13        -10.7180    21.2010    21.8930 na         1 A1A       0.081000
     17 N16         -8.5310    21.1750    21.9030 nd         1 A1A      -0.430700
     18 N17         -8.9760    22.1950    22.7460 nd         1 A1A      -0.049000
     19 N3         -15.6100    26.6000    19.3210 ns         1 A1A      -0.153000
     20 S10        -14.6050    21.2670    21.9770 ss         1 A1A      -0.095300
     21 H1         -16.7630    25.6710    21.6740 ha         1 A1A       0.134500
     22 H2         -16.3240    23.4900    22.7140 ha         1 A1A       0.129500
     23 H3         -10.9270    23.7900    24.0820 ha         1 A1A       0.150000
     24 H4         -16.9060    29.7000    18.8530 hc         1 A1A       0.067367
     25 H5         -15.2330    29.1120    18.4710 hc         1 A1A       0.067367
     26 H6         -16.5390    28.4360    17.6050 hc         1 A1A       0.067367
     27 H7         -13.3580    23.3000    23.6590 ha         1 A1A       0.144000
     28 H8         -13.5780    22.5000    19.5260 ha         1 A1A       0.129500
     29 H9         -14.0100    24.6960    18.4720 ha         1 A1A       0.134500
     30 H10         -8.7220    18.9980    20.4830 hn         1 A1A       0.474000
     31 H11        -10.4510    19.0280    20.4190 hn         1 A1A       0.474000
     32 H12        -15.0830    26.6880    18.4620 hn         1 A1A       0.152000
     33 N15         -9.5800    19.5360    20.5370 nv         1 A1A      -0.970200
@<TRIPOS>BOND
     1     1     8 2   
     2     1     9 1   
     3     1    19 1   
     4     2     3 ar  
     5     2    14 ar  
     6     2    19 1   
     7     3     4 ar  
     8     3    21 1   
     9     4     5 ar  
    10     4    22 1   
    11     5    13 ar  
    12     5    20 1   
    13     6    16 1   
    14     6    17 2   
    15     6    33 1   
    16     7    11 1   
    17     7    12 2   
    18     7    23 1   
    19     9    24 1   
    20     9    25 1   
    21     9    26 1   
    22    10    12 1   
    23    10    15 2   
    24    10    20 1   
    25    11    16 1   
    26    11    18 2   
    27    12    27 1   
    28    13    14 ar  
    29    13    28 1   
    30    14    29 1   
    31    15    16 1   
    32    17    18 1   
    33    19    32 1   
    34    30    33 1   
    35    31    33 1   
@<TRIPOS>SUBSTRUCTURE
     1 A1A         1 TEMP              0 ****  ****    0 ROOT
