@<TRIPOS>MOLECULE
A1A
   33    34     1     0     0
SMALL
No Charge or Current Charge


@<TRIPOS>ATOM
      1 C4          35.8540    42.1480    10.2480 ca         1 A1A      -0.096300
      2 C5          36.0310    42.6820    11.5400 ca         1 A1A      -0.079000
      3 C6          36.7290    41.9530    12.5190 ca         1 A1A      -0.153000
      4 C7          37.2560    40.6920    12.2070 ca         1 A1A       0.170000
      5 C8          37.0940    40.1550    10.9210 ca         1 A1A      -0.153000
      6 C10         32.8200    43.2040    10.4910 c5         1 A1A       0.162800
      7 N           32.8930    44.6850    10.4490 n7         1 A1A      -0.865400
      8 C           33.1420    41.2970     8.8570 c          1 A1A       0.599100
      9 O           32.7200    40.8930     7.7800 o          1 A1A      -0.492000
     10 C1          32.9790    39.0910     9.8250 c3         1 A1A       0.150900
     11 C11         32.7680    45.0720     9.0180 c5         1 A1A       0.145800
     12 C12         32.8100    43.7430     8.2100 c5         1 A1A      -0.072400
     13 C2          33.5430    42.7660     9.1870 c5         1 A1A      -0.104000
     14 C3          35.0980    42.9410     9.1840 c3         1 A1A      -0.017100
     15 C9          36.3970    40.8830     9.9410 ca         1 A1A      -0.079000
     16 F           37.9260    39.9920    13.1480 f          1 A1A      -0.181000
     17 H5          35.6230    43.6610    11.7850 ha         1 A1A       0.121000
     18 H6          36.8610    42.3650    13.5170 ha         1 A1A       0.131000
     19 H7          37.5080    39.1770    10.6860 ha         1 A1A       0.131000
     20 H10         31.7700    42.8750    10.4810 h1         1 A1A       0.050200
     21 H9          33.2830    42.7940    11.4000 h1         1 A1A       0.050200
     22 H16         32.1330    45.0970    11.0080 hn         1 A1A       0.417000
     23 H2          33.1500    38.5710    10.7760 h1         1 A1A       0.048033
     24 H           31.9280    38.9500     9.5430 h1         1 A1A       0.048033
     25 H1          33.6120    38.6190     9.0620 h1         1 A1A       0.048033
     26 H13         31.8340    45.6200     8.8300 h1         1 A1A       0.038200
     27 H12         33.6010    45.7320     8.7370 h1         1 A1A       0.038200
     28 H15         31.7880    43.4090     7.9910 hc         1 A1A       0.060700
     29 H14         33.3220    43.8540     7.2470 hc         1 A1A       0.060700
     30 H4          35.4820    42.6700     8.1920 hc         1 A1A       0.067200
     31 H3          35.3540    44.0010     9.2980 hc         1 A1A       0.067200
     32 H8          36.2730    40.4600     8.9460 ha         1 A1A       0.121000
     33 O1          33.2930    40.4890     9.9570 os         1 A1A      -0.434100
@<TRIPOS>BOND
     1     1     2 ar  
     2     1    14 1   
     3     1    15 ar  
     4     2     3 ar  
     5     2    17 1   
     6     3     4 ar  
     7     3    18 1   
     8     4     5 ar  
     9     4    16 1   
    10     5    15 ar  
    11     5    19 1   
    12     6     7 1   
    13     6    13 1   
    14     6    20 1   
    15     6    21 1   
    16     7    11 1   
    17     7    22 1   
    18     8     9 2   
    19     8    13 1   
    20     8    33 1   
    21    10    23 1   
    22    10    24 1   
    23    10    25 1   
    24    10    33 1   
    25    11    12 1   
    26    11    26 1   
    27    11    27 1   
    28    12    13 1   
    29    12    28 1   
    30    12    29 1   
    31    13    14 1   
    32    14    30 1   
    33    14    31 1   
    34    15    32 1   
@<TRIPOS>SUBSTRUCTURE
     1 A1A         1 TEMP              0 ****  ****    0 ROOT
