@<TRIPOS>MOLECULE
A1A
   28    29     1     0     0
SMALL
No Charge or Current Charge


@<TRIPOS>ATOM
      1 N1          18.4230     3.4610    15.9080 n7         1 A1A      -0.844400
      2 C4          14.9460    -0.4940    18.8750 ca         1 A1A      -0.047000
      3 C5          15.7880    -0.5620    17.7440 ca         1 A1A      -0.186600
      4 C6          15.6670     0.4970    16.6780 c          1 A1A       0.628700
      5 C7          16.7740     1.8760    14.8590 c6         1 A1A       0.059500
      6 C8          17.1120     3.3510    15.2120 c6         1 A1A       0.129800
      7 C10         18.1350     1.1120    16.7880 c6         1 A1A       0.059500
      8 N           16.8390     0.9860    16.0550 n          1 A1A      -0.399800
      9 C           16.6750    -1.6550    17.6210 ca         1 A1A       0.193000
     10 O           14.5580     0.8760    16.3180 o          1 A1A      -0.590100
     11 C1          16.7500    -2.6300    18.6300 ca         1 A1A      -0.157000
     12 C2          15.9310    -2.5360    19.7660 ca         1 A1A      -0.071000
     13 C3          15.0240    -1.4700    19.8840 ca         1 A1A      -0.131000
     14 C9          18.4770     2.5940    17.1170 c6         1 A1A       0.129800
     15 F           17.4340    -1.8160    16.5140 f          1 A1A      -0.175000
     16 H13         19.1590     3.1530    15.2590 hn         1 A1A       0.406000
     17 H4          17.4930     1.5110    14.1120 h1         1 A1A       0.060450
     18 H5          15.7810     1.8310    14.3910 h1         1 A1A       0.060450
     19 H7          17.1240     3.9560    14.2930 h1         1 A1A       0.061700
     20 H6          16.3180     3.7540    15.8600 h1         1 A1A       0.061700
     21 H12         18.9360     0.6820    16.1690 h1         1 A1A       0.060450
     22 H11         18.1150     0.5470    17.7290 h1         1 A1A       0.060450
     23 H           17.4370    -3.4650    18.5210 ha         1 A1A       0.135000
     24 H1          15.9880    -3.2930    20.5460 ha         1 A1A       0.120000
     25 H2          14.3790    -1.4010    20.7570 ha         1 A1A       0.123000
     26 H9          19.4770     2.6480    17.5730 h1         1 A1A       0.061700
     27 H10         17.7580     2.9650    17.8630 h1         1 A1A       0.061700
     28 H3          14.2370     0.3260    18.9800 ha         1 A1A       0.129000
@<TRIPOS>BOND
     1     1     6 1   
     2     1    14 1   
     3     1    16 1   
     4     2     3 ar  
     5     2    13 ar  
     6     2    28 1   
     7     3     4 1   
     8     3     9 ar  
     9     4     8 1   
    10     4    10 2   
    11     5     6 1   
    12     5     8 1   
    13     5    17 1   
    14     5    18 1   
    15     6    19 1   
    16     6    20 1   
    17     7     8 1   
    18     7    14 1   
    19     7    21 1   
    20     7    22 1   
    21     9    11 ar  
    22     9    15 1   
    23    11    12 ar  
    24    11    23 1   
    25    12    13 ar  
    26    12    24 1   
    27    13    25 1   
    28    14    26 1   
    29    14    27 1   
@<TRIPOS>SUBSTRUCTURE
     1 A1A         1 TEMP              0 ****  ****    0 ROOT
