@<TRIPOS>MOLECULE
A1A
   33    34     1     0     0
SMALL
abcg2


@<TRIPOS>ATOM
      1 C4           5.2380    22.9570   -19.5000 ca         1 A1A      -0.103300
      2 C5           5.9470    21.8000   -19.8190 ca         1 A1A      -0.077500
      3 C6           7.1900    21.5340   -19.2630 ca         1 A1A      -0.150000
      4 C7           7.7210    22.4430   -18.3690 ca         1 A1A       0.174000
      5 C8           7.0450    23.5900   -18.0070 ca         1 A1A      -0.150000
      6 C10          2.6190    24.3460   -22.0820 c5         1 A1A       0.146800
      7 N            2.4560    23.5940   -23.3150 n7         1 A1A      -0.825400
      8 C            4.8180    25.2950   -21.3090 c          1 A1A       0.603100
      9 O            5.8180    25.6110   -21.9030 o          1 A1A      -0.477000
     10 C1           4.8550    27.3300   -20.1160 c3         1 A1A       0.149900
     11 C11          3.8120    23.4400   -23.8260 c5         1 A1A       0.130800
     12 C12          4.6660    23.1340   -22.5960 c5         1 A1A      -0.105400
     13 C2           4.0400    24.0070   -21.4950 c5         1 A1A      -0.139000
     14 C3           3.9140    23.2680   -20.1450 c3         1 A1A      -0.010100
     15 C9           5.8030    23.8350   -18.5760 ca         1 A1A      -0.077500
     16 F            8.9270    22.1970   -17.8270 f          1 A1A      -0.179000
     17 H5           5.5230    21.0820   -20.5100 ha         1 A1A       0.116500
     18 H6           7.7310    20.6320   -19.5180 ha         1 A1A       0.132000
     19 H7           7.4720    24.2780   -17.2890 ha         1 A1A       0.132000
     20 H10          1.8250    24.1090   -21.3730 h1         1 A1A       0.062700
     21 H9           2.5380    25.4150   -22.3010 h1         1 A1A       0.062700
     22 H16          2.0980    22.6730   -23.0890 hn         1 A1A       0.398000
     23 H            4.2360    27.8000   -19.3570 h1         1 A1A       0.048367
     24 H2           5.8650    27.1980   -19.7260 h1         1 A1A       0.048367
     25 H1           4.8910    27.9690   -20.9980 h1         1 A1A       0.048367
     26 H13          3.8580    22.6620   -24.5880 h1         1 A1A       0.063700
     27 H12          4.1290    24.3780   -24.2930 h1         1 A1A       0.063700
     28 H15          4.5430    22.0790   -22.3430 hc         1 A1A       0.063700
     29 H14          5.7300    23.3100   -22.7420 hc         1 A1A       0.063700
     30 H3           3.3020    23.8570   -19.4600 hc         1 A1A       0.057700
     31 H4           3.3640    22.3430   -20.3330 hc         1 A1A       0.057700
     32 H8           5.2650    24.7270   -18.2800 ha         1 A1A       0.116500
     33 O1           4.2400    26.0760   -20.4040 os         1 A1A      -0.449100
@<TRIPOS>BOND
     1     1     2 ar  
     2     1    14 1   
     3     1    15 ar  
     4     2     3 ar  
     5     2    17 1   
     6     3     4 ar  
     7     3    18 1   
     8     4     5 ar  
     9     4    16 1   
    10     5    15 ar  
    11     5    19 1   
    12     6     7 1   
    13     6    13 1   
    14     6    20 1   
    15     6    21 1   
    16     7    11 1   
    17     7    22 1   
    18     8     9 2   
    19     8    13 1   
    20     8    33 1   
    21    10    23 1   
    22    10    24 1   
    23    10    25 1   
    24    10    33 1   
    25    11    12 1   
    26    11    26 1   
    27    11    27 1   
    28    12    13 1   
    29    12    28 1   
    30    12    29 1   
    31    13    14 1   
    32    14    30 1   
    33    14    31 1   
    34    15    32 1   
@<TRIPOS>SUBSTRUCTURE
     1 A1A         1 TEMP              0 ****  ****    0 ROOT
