@<TRIPOS>MOLECULE
A1A
   26    27     1     0     0
SMALL
No Charge or Current Charge


@<TRIPOS>ATOM
      1 N1          41.4500    46.6420    -4.7930 nv         1 A1A      -0.996200
      2 C4          42.5030    43.3930    -4.5640 ca         1 A1A       0.098400
      3 C5          43.0390    42.1700    -4.9960 ca         1 A1A      -0.066000
      4 C6          43.1330    41.1100    -4.0690 ca         1 A1A      -0.128000
      5 C7          42.6940    41.2860    -2.7360 ca         1 A1A      -0.111000
      6 C8          42.1580    42.5210    -2.3180 ca         1 A1A      -0.109000
      7 N           41.6190    44.8490    -3.1780 na         1 A1A      -0.209600
      8 C           42.1550    45.6180    -0.8330 c3         1 A1A      -0.106600
      9 C1          41.0950    45.4970    -1.9500 c3         1 A1A       0.101300
     10 C2          39.7710    44.8700    -1.4590 c3         1 A1A      -0.106600
     11 C3          41.7920    45.3920    -4.4490 cc         1 A1A       0.620700
     12 C9          42.0800    43.5570    -3.2660 ca         1 A1A      -0.077200
     13 N2          42.3250    44.5480    -5.3240 nd         1 A1A      -0.640100
     14 H7          41.4220    46.8280    -5.7880 hn         1 A1A       0.466000
     15 H8          40.7550    47.1110    -4.2270 hn         1 A1A       0.466000
     16 H9          43.3720    42.0450    -6.0230 ha         1 A1A       0.126000
     17 H10         43.5450    40.1540    -4.3820 ha         1 A1A       0.111000
     18 H11         42.7700    40.4620    -2.0290 ha         1 A1A       0.109000
     19 H12         41.8220    42.6470    -1.2940 ha         1 A1A       0.113000
     20 H1          43.0570    46.1130    -1.2140 hc         1 A1A       0.047533
     21 H2          41.7670    46.2190    -0.0020 hc         1 A1A       0.047533
     22 H           42.4440    44.6400    -0.4350 hc         1 A1A       0.047533
     23 H3          40.8450    46.5290    -2.2250 h1         1 A1A       0.054700
     24 H4          39.0310    44.8550    -2.2680 hc         1 A1A       0.047533
     25 H5          39.9120    43.8420    -1.1070 hc         1 A1A       0.047533
     26 H6          39.3540    45.4560    -0.6310 hc         1 A1A       0.047533
@<TRIPOS>BOND
     1     1    11 1   
     2     1    14 1   
     3     1    15 1   
     4     2     3 ar  
     5     2    12 ar  
     6     2    13 1   
     7     3     4 ar  
     8     3    16 1   
     9     4     5 ar  
    10     4    17 1   
    11     5     6 ar  
    12     5    18 1   
    13     6    12 ar  
    14     6    19 1   
    15     7     9 1   
    16     7    11 1   
    17     7    12 1   
    18     8     9 1   
    19     8    20 1   
    20     8    21 1   
    21     8    22 1   
    22     9    10 1   
    23     9    23 1   
    24    10    24 1   
    25    10    25 1   
    26    10    26 1   
    27    11    13 2   
@<TRIPOS>SUBSTRUCTURE
     1 A1A         1 TEMP              0 ****  ****    0 ROOT
