@<TRIPOS>MOLECULE
A1A
   21    22     1     0     0
SMALL
abcg2


@<TRIPOS>ATOM
      1 C4          14.6430    10.8290    11.1860 ca         1 A1A       0.134100
      2 C5          15.2000     9.4830     9.4610 c5         1 A1A       0.148600
      3 C6          15.4190     8.6660    10.7450 c5         1 A1A      -0.052100
      4 C7          15.1730     9.7020    11.8030 ca         1 A1A      -0.177300
      5 C8          15.3350     9.6770    13.1710 ca         1 A1A      -0.031000
      6 O           16.5540    10.8820    15.6910 oh         1 A1A      -0.655000
      7 C1          14.9650    10.7900    13.9350 ca         1 A1A      -0.128300
      8 C2          14.4430    11.9060    13.2900 ca         1 A1A      -0.059000
      9 C3          14.2680    11.9470    11.9070 ca         1 A1A      -0.143000
     10 O1          14.5330    10.7000     9.8490 os         1 A1A      -0.333100
     11 H6          14.5810     8.9740     8.7250 h1         1 A1A       0.056700
     12 H5          16.1510     9.7460     8.9920 h1         1 A1A       0.056700
     13 H8          14.7100     7.8390    10.8300 hc         1 A1A       0.062200
     14 H7          16.4210     8.2400    10.7840 hc         1 A1A       0.062200
     15 H9          15.7360     8.7950    13.6590 ha         1 A1A       0.117000
     16 H2          14.7550     9.8560    15.8420 h1         1 A1A       0.021700
     17 H1          14.6090    11.6110    15.8700 h1         1 A1A       0.021700
     18 H           16.6790    10.7750    16.6400 ho         1 A1A       0.439000
     19 H3          14.1600    12.7730    13.8760 ha         1 A1A       0.113000
     20 H4          13.8570    12.8220    11.4220 ha         1 A1A       0.130000
     21 C           15.1690    10.7810    15.4220 c3         1 A1A       0.214900
@<TRIPOS>BOND
     1     1     4 ar  
     2     1     9 ar  
     3     1    10 1   
     4     2     3 1   
     5     2    10 1   
     6     2    11 1   
     7     2    12 1   
     8     3     4 1   
     9     3    13 1   
    10     3    14 1   
    11     4     5 ar  
    12     5     7 ar  
    13     5    15 1   
    14     6    18 1   
    15     6    21 1   
    16     7     8 ar  
    17     7    21 1   
    18     8     9 ar  
    19     8    19 1   
    20     9    20 1   
    21    16    21 1   
    22    17    21 1   
@<TRIPOS>SUBSTRUCTURE
     1 A1A         1 TEMP              0 ****  ****    0 ROOT
