@<TRIPOS>MOLECULE
A1A
   57    60     1     0     0
SMALL
No Charge or Current Charge


@<TRIPOS>ATOM
      1 C1          35.1780    19.2310     1.0030 c3         1 A1A      -0.116100
      2 C2          36.0790    18.0960     1.5190 c3         1 A1A       0.134000
      3 C4          34.9880    15.8490     1.3760 c          1 A1A       0.574000
      4 C8          34.8670    16.8140     3.3820 cc         1 A1A       0.367900
      5 C11         33.7410    13.7720     2.0360 ca         1 A1A       0.080600
      6 C12         34.0710    12.6800     2.8590 ca         1 A1A      -0.102000
      7 C15         33.3000     8.9990     3.1820 cc         1 A1A      -0.009400
      8 C17         31.9980     9.8750     1.3080 c          1 A1A       0.572600
      9 C19         32.6270    11.2170     1.5620 ca         1 A1A      -0.147600
     10 C21         32.8330    13.5830     0.9770 ca         1 A1A       0.162000
     11 C23         31.8480     7.4780     1.9490 ca         1 A1A       0.014600
     12 C24         31.2630     6.8610     3.0770 ca         1 A1A      -0.096000
     13 C27         31.3850     5.4520     0.6600 ca         1 A1A      -0.108000
     14 C30         34.8320    10.3600     4.6760 c3         1 A1A      -0.062500
     15 C32         34.0890    10.9700     5.8930 c3         1 A1A      -0.091100
     16 C33         35.6400     9.0790     5.0670 c3         1 A1A       0.297000
     17 N3          35.3150    16.9680     2.0830 n          1 A1A      -0.319300
     18 N6          34.3170    15.0570     2.3110 n          1 A1A      -0.086000
     19 N7          34.2590    15.6630     3.5670 n2         1 A1A      -0.473300
     20 C9          35.0740    17.8330     4.4950 c3         1 A1A       0.148300
     21 O10         34.1180    18.9150     4.4550 oh         1 A1A      -0.648000
     22 C13         33.5320    11.3900     2.6300 ca         1 A1A       0.021200
     23 C14         33.8720    10.2250     3.4840 cd         1 A1A      -0.168400
     24 N16         32.4420     8.7880     2.0970 n          1 A1A      -0.207200
     25 O18         31.1130     9.7470     0.4690 o          1 A1A      -0.525000
     26 C20         32.2810    12.3170     0.7440 ca         1 A1A      -0.084000
     27 F22         32.4470    14.6200     0.1980 f          1 A1A      -0.154000
     28 C25         30.7120     5.5730     2.9890 ca         1 A1A      -0.110000
     29 C26         30.7640     4.8720     1.7770 ca         1 A1A      -0.094000
     30 C28         31.9450     6.7430     0.7350 ca         1 A1A      -0.042300
     31 C29         32.6920     7.2730    -0.4890 c3         1 A1A      -0.054800
     32 F34         36.1890     8.4950     3.9770 f          1 A1A      -0.117000
     33 F35         36.6520     9.3930     5.9080 f          1 A1A      -0.117000
     34 F36         34.8670     8.1600     5.6930 f          1 A1A      -0.117000
     35 H1          35.7880    20.0410     0.5870 hc         1 A1A       0.053033
     36 H2          34.5100    18.8630     0.2150 hc         1 A1A       0.053033
     37 H3          34.5650    19.6430     1.8120 hc         1 A1A       0.053033
     38 H4          36.7030    17.7300     0.6930 h1         1 A1A       0.056200
     39 H5          36.7570    18.4920     2.2850 h1         1 A1A       0.056200
     40 H6          34.7560    12.8660     3.6780 ha         1 A1A       0.133000
     41 H7          33.4810     8.0780     3.7220 h4         1 A1A       0.216000
     42 H8          31.2040     7.3950     4.0230 ha         1 A1A       0.122000
     43 H9          31.4460     4.8860    -0.2670 ha         1 A1A       0.118000
     44 H10         35.6200    11.0670     4.3950 hc         1 A1A       0.084700
     45 H11         34.7780    11.1520     6.7260 hc         1 A1A       0.052367
     46 H12         33.6210    11.9260     5.6290 hc         1 A1A       0.052367
     47 H13         33.2980    10.2960     6.2430 hc         1 A1A       0.052367
     48 H14         35.0040    17.3070     5.4570 h1         1 A1A       0.050700
     49 H15         36.0970    18.2250     4.4260 h1         1 A1A       0.050700
     50 H16         34.2990    19.4910     5.2310 ho         1 A1A       0.453000
     51 H17         31.5730    12.1990    -0.0730 ha         1 A1A       0.160000
     52 H18         30.2440     5.1190     3.8600 ha         1 A1A       0.119000
     53 H19         30.3380     3.8730     1.7060 ha         1 A1A       0.117000
     54 H20         32.0160     7.8130    -1.1610 hc         1 A1A       0.052033
     55 H21         33.5110     7.9460    -0.2130 hc         1 A1A       0.052033
     56 H22         33.1380     6.4540    -1.0650 hc         1 A1A       0.052033
     57 O5          35.2470    15.5990     0.2050 o          1 A1A      -0.533000
@<TRIPOS>BOND
     1     1     2 1   
     2     1    35 1   
     3     1    36 1   
     4     1    37 1   
     5     2    17 1   
     6     2    38 1   
     7     2    39 1   
     8     3    17 1   
     9     3    18 1   
    10     3    57 2   
    11     4    17 1   
    12     4    19 2   
    13     4    20 1   
    14     5     6 ar  
    15     5    10 ar  
    16     5    18 1   
    17     6    22 ar  
    18     6    40 1   
    19     7    23 2   
    20     7    24 1   
    21     7    41 1   
    22     8     9 1   
    23     8    24 1   
    24     8    25 2   
    25     9    22 ar  
    26     9    26 ar  
    27    10    26 ar  
    28    10    27 1   
    29    11    12 ar  
    30    11    24 1   
    31    11    30 ar  
    32    12    28 ar  
    33    12    42 1   
    34    13    29 ar  
    35    13    30 ar  
    36    13    43 1   
    37    14    15 1   
    38    14    16 1   
    39    14    23 1   
    40    14    44 1   
    41    15    45 1   
    42    15    46 1   
    43    15    47 1   
    44    16    32 1   
    45    16    33 1   
    46    16    34 1   
    47    18    19 1   
    48    20    21 1   
    49    20    48 1   
    50    20    49 1   
    51    21    50 1   
    52    22    23 1   
    53    26    51 1   
    54    28    29 ar  
    55    28    52 1   
    56    29    53 1   
    57    30    31 1   
    58    31    54 1   
    59    31    55 1   
    60    31    56 1   
@<TRIPOS>SUBSTRUCTURE
     1 A1A         1 TEMP              0 ****  ****    0 ROOT
