@<TRIPOS>MOLECULE
A1A
   28    29     1     0     0
SMALL
abcg2


@<TRIPOS>ATOM
      1 N1          18.3410     3.4570    16.0480 n7         1 A1A      -0.844400
      2 C4          15.1340    -0.3670    18.8020 ca         1 A1A      -0.047000
      3 C5          15.8760    -0.5910    17.6450 ca         1 A1A      -0.186600
      4 C6          15.7240     0.3380    16.4760 c          1 A1A       0.628700
      5 C7          16.7500     1.9090    14.9240 c6         1 A1A       0.059500
      6 C8          17.0820     3.3400    15.3340 c6         1 A1A       0.129800
      7 C10         18.0760     1.0840    16.7860 c6         1 A1A       0.059500
      8 N           16.8080     1.0260    16.0790 n          1 A1A      -0.399800
      9 C           16.6310    -1.7500    17.5760 ca         1 A1A       0.193000
     10 O           14.6270     0.4280    15.9430 o          1 A1A      -0.590100
     11 C1          16.6830    -2.6670    18.6060 ca         1 A1A      -0.157000
     12 C2          15.9510    -2.4140    19.7570 ca         1 A1A      -0.071000
     13 C3          15.1810    -1.2630    19.8590 ca         1 A1A      -0.131000
     14 C9          18.3990     2.5290    17.1620 c6         1 A1A       0.129800
     15 F           17.3380    -1.9900    16.4600 f          1 A1A      -0.175000
     16 H13         19.1060     3.2650    15.4110 hn         1 A1A       0.406000
     17 H4          17.4790     1.5590    14.1850 h1         1 A1A       0.060450
     18 H5          15.7630     1.8550    14.4700 h1         1 A1A       0.060450
     19 H7          17.1130     3.9720    14.4450 h1         1 A1A       0.061700
     20 H6          16.2810     3.7240    15.9730 h1         1 A1A       0.061700
     21 H12         18.8640     0.6800    16.1430 h1         1 A1A       0.060450
     22 H11         18.0440     0.4780    17.6890 h1         1 A1A       0.060450
     23 H           17.2830    -3.5620    18.5070 ha         1 A1A       0.135000
     24 H1          15.9840    -3.1220    20.5750 ha         1 A1A       0.120000
     25 H2          14.6100    -1.0670    20.7560 ha         1 A1A       0.123000
     26 H9          19.3930     2.5660    17.6110 h1         1 A1A       0.061700
     27 H10         17.6880     2.8600    17.9260 h1         1 A1A       0.061700
     28 H3          14.5250     0.5250    18.8760 ha         1 A1A       0.129000
@<TRIPOS>BOND
     1     1     6 1   
     2     1    14 1   
     3     1    16 1   
     4     2     3 ar  
     5     2    13 ar  
     6     2    28 1   
     7     3     4 1   
     8     3     9 ar  
     9     4     8 1   
    10     4    10 2   
    11     5     6 1   
    12     5     8 1   
    13     5    17 1   
    14     5    18 1   
    15     6    19 1   
    16     6    20 1   
    17     7     8 1   
    18     7    14 1   
    19     7    21 1   
    20     7    22 1   
    21     9    11 ar  
    22     9    15 1   
    23    11    12 ar  
    24    11    23 1   
    25    12    13 ar  
    26    12    24 1   
    27    13    25 1   
    28    14    26 1   
    29    14    27 1   
@<TRIPOS>SUBSTRUCTURE
     1 A1A         1 TEMP              0 ****  ****    0 ROOT
