@<TRIPOS>MOLECULE
A1A
   33    35     1     0     0
SMALL
abcg2


@<TRIPOS>ATOM
      1 C2         -16.9460    27.6990    19.7890 c          1 A1A       0.610100
      2 C4         -15.5140    25.6650    19.9160 ca         1 A1A       0.015000
      3 C5         -16.0810    25.0540    21.0370 ca         1 A1A      -0.165500
      4 C6         -15.6310    23.8080    21.4470 ca         1 A1A      -0.033000
      5 C7         -14.6320    23.1430    20.7500 ca         1 A1A      -0.195000
      6 C14         -9.5420    19.8430    22.1160 cc         1 A1A       0.568700
      7 C19        -10.7110    23.0940    22.6720 cc         1 A1A      -0.013000
      8 O21        -17.7440    27.3990    20.6550 o          1 A1A      -0.566100
      9 C1         -17.0400    28.9770    18.9940 c3         1 A1A      -0.184100
     10 C11        -12.4750    21.7440    21.7360 cd         1 A1A       0.402300
     11 C18         -9.9030    21.9350    22.5860 cc         1 A1A      -0.153000
     12 C20        -11.9940    22.9970    22.2530 cd         1 A1A      -0.152000
     13 C8         -14.0720    23.7430    19.6260 ca         1 A1A      -0.033000
     14 C9         -14.4980    24.9920    19.2250 ca         1 A1A      -0.165500
     15 N12        -11.7560    20.6730    21.6410 nc         1 A1A      -0.441800
     16 N13        -10.5010    20.8010    22.0820 na         1 A1A       0.081000
     17 N16         -8.4430    20.3640    22.6050 nd         1 A1A      -0.430700
     18 N17         -8.6640    21.6710    22.8930 nd         1 A1A      -0.049000
     19 N3         -15.8840    26.9170    19.4340 ns         1 A1A      -0.153000
     20 S10        -14.1530    21.5160    21.2490 ss         1 A1A      -0.095300
     21 H1         -16.8580    25.5400    21.6020 ha         1 A1A       0.134500
     22 H2         -16.0690    23.3560    22.3280 ha         1 A1A       0.129500
     23 H3         -10.3030    24.0120    23.0740 ha         1 A1A       0.150000
     24 H4         -17.8750    29.5750    19.3470 hc         1 A1A       0.067367
     25 H5         -16.1240    29.5620    19.0830 hc         1 A1A       0.067367
     26 H6         -17.1850    28.7610    17.9340 hc         1 A1A       0.067367
     27 H7         -12.6620    23.8430    22.3110 ha         1 A1A       0.144000
     28 H8         -13.3010    23.2360    19.0590 ha         1 A1A       0.129500
     29 H9         -14.0490    25.4490    18.3500 ha         1 A1A       0.134500
     30 H10         -9.0210    17.9300    21.9180 hn         1 A1A       0.474000
     31 H11        -10.6620    18.2150    21.7380 hn         1 A1A       0.474000
     32 H12        -15.3180    27.2660    18.6740 hn         1 A1A       0.152000
     33 N15         -9.7300    18.5880    21.6320 nv         1 A1A      -0.970200
@<TRIPOS>BOND
     1     1     8 2   
     2     1     9 1   
     3     1    19 1   
     4     2     3 ar  
     5     2    14 ar  
     6     2    19 1   
     7     3     4 ar  
     8     3    21 1   
     9     4     5 ar  
    10     4    22 1   
    11     5    13 ar  
    12     5    20 1   
    13     6    16 1   
    14     6    17 2   
    15     6    33 1   
    16     7    11 1   
    17     7    12 2   
    18     7    23 1   
    19     9    24 1   
    20     9    25 1   
    21     9    26 1   
    22    10    12 1   
    23    10    15 2   
    24    10    20 1   
    25    11    16 1   
    26    11    18 2   
    27    12    27 1   
    28    13    14 ar  
    29    13    28 1   
    30    14    29 1   
    31    15    16 1   
    32    17    18 1   
    33    19    32 1   
    34    30    33 1   
    35    31    33 1   
@<TRIPOS>SUBSTRUCTURE
     1 A1A         1 TEMP              0 ****  ****    0 ROOT
