@<TRIPOS>MOLECULE
A1A
   24    28     1     0     0
SMALL
No Charge or Current Charge


@<TRIPOS>ATOM
      1 C4          -5.3240    -4.0210    21.2730 cy         1 A1A       0.020000
      2 C6          -6.4420    -5.1230    21.4380 cy         1 A1A       0.098750
      3 C12         -6.4090    -3.1000    23.2350 cy         1 A1A       0.098750
      4 C21         -7.5260    -4.2020    23.3930 cy         1 A1A       0.099000
      5 C2          -4.1810    -4.0930    22.2740 c5         1 A1A       0.495000
      6 O1          -3.3960    -5.2560    22.1630 oh         1 A1A      -0.600500
      7 C10         -5.2650    -4.1830    23.3360 cy         1 A1A       0.020000
      8 C14         -6.4550    -2.9720    21.6090 cy         1 A1A       0.098750
      9 C16         -7.5850    -4.0400    21.3430 cy         1 A1A       0.099000
     10 C8          -6.3950    -5.2510    23.0640 cy         1 A1A       0.098750
     11 O3          -3.4100    -2.9160    22.3410 oh         1 A1A      -0.600500
     12 Cl11        -4.5570    -4.3120    24.9990 cl         1 A1A      -0.117000
     13 Cl13        -6.3970    -1.6110    24.2520 cl         1 A1A      -0.117500
     14 Cl15        -6.4920    -1.3420    20.8380 cl         1 A1A      -0.117500
     15 Cl17        -8.2980    -3.9130    19.6850 cl         1 A1A      -0.108000
     16 Cl22        -8.1440    -4.3400    25.0880 cl         1 A1A      -0.108000
     17 Cl5         -4.7110    -3.8800    19.5750 cl         1 A1A      -0.117000
     18 Cl7         -6.4620    -6.6120    20.4210 cl         1 A1A      -0.117500
     19 Cl9         -6.3630    -6.8810    23.8340 cl         1 A1A      -0.117500
     20 H1          -3.0310    -5.4110    23.0600 ho         1 A1A       0.485000
     21 H3          -3.0990    -2.7560    21.4260 ho         1 A1A       0.485000
     22 C18         -8.6730    -4.1300    22.3990 c5         1 A1A       0.313000
     23 Cl19        -9.7260    -2.6550    22.5450 cl         1 A1A      -0.145000
     24 Cl20        -9.7080    -5.6230    22.3110 cl         1 A1A      -0.145000
@<TRIPOS>BOND
     1     1     2 1   
     2     1     5 1   
     3     1     8 1   
     4     1    17 1   
     5     2     9 1   
     6     2    10 1   
     7     2    18 1   
     8     3     4 1   
     9     3     7 1   
    10     3     8 1   
    11     3    13 1   
    12     4    10 1   
    13     4    16 1   
    14     4    22 1   
    15     5     6 1   
    16     5     7 1   
    17     5    11 1   
    18     6    20 1   
    19     7    10 1   
    20     7    12 1   
    21     8     9 1   
    22     8    14 1   
    23     9    15 1   
    24     9    22 1   
    25    10    19 1   
    26    11    21 1   
    27    22    23 1   
    28    22    24 1   
@<TRIPOS>SUBSTRUCTURE
     1 A1A         1 TEMP              0 ****  ****    0 ROOT
