@<TRIPOS>MOLECULE
A1A
   49    51     1     0     0
SMALL
abcg2


@<TRIPOS>ATOM
      1 C1          -8.7930   -15.5980   -55.5830 c          1 A1A       0.643100
      2 C2          -7.5910   -14.6290   -57.5380 ca         1 A1A       0.051000
      3 C3          -7.1810   -15.8100   -58.1660 ca         1 A1A      -0.185500
      4 C4          -6.4330   -15.7450   -59.3260 ca         1 A1A      -0.020000
      5 C11         -6.5010   -13.3550   -59.2870 ca         1 A1A      -0.020000
      6 C13         -9.5110   -15.1510   -54.3300 c3         1 A1A      -0.111400
      7 C14        -10.6690   -16.0840   -53.9970 c3         1 A1A      -0.179400
      8 C15        -11.6990   -16.1850   -55.1600 c          1 A1A       0.732000
      9 C16        -11.3800   -15.6550   -52.7410 ca         1 A1A       0.027700
     10 C18        -12.6870   -14.0220   -51.5230 ca         1 A1A      -0.068000
     11 C21        -12.1210   -16.1110   -50.4800 ca         1 A1A      -0.068000
     12 C19        -12.7460   -14.8740   -50.4220 ca         1 A1A      -0.230300
     13 C17        -12.0130   -14.4120   -52.6660 ca         1 A1A      -0.119000
     14 C22        -11.4470   -16.4910   -51.6320 ca         1 A1A      -0.119000
     15 C10         -3.1100   -13.9700   -63.3100 c3         1 A1A       0.064900
     16 C12         -7.2320   -13.4050   -58.1170 ca         1 A1A      -0.185500
     17 C5          -6.0860   -14.5300   -59.9180 ca         1 A1A      -0.219600
     18 C6          -5.2340   -14.5680   -61.1290 c          1 A1A       0.535200
     19 C7          -5.2740   -13.4450   -62.0760 cc         1 A1A       0.324000
     20 C8          -5.9380   -11.7640   -63.2090 cd         1 A1A       0.222900
     21 C9          -4.7530   -12.1740   -63.7700 cc         1 A1A      -0.235000
     22 F1         -14.7050   -13.9780   -49.4760 f          1 A1A      -0.126000
     23 F2         -13.6050   -15.3940   -48.2860 f          1 A1A      -0.126000
     24 F3         -12.8370   -13.4060   -48.5850 f          1 A1A      -0.126000
     25 N1          -8.3340   -14.5780   -56.3660 ns         1 A1A      -0.138000
     26 N2          -6.2460   -12.5560   -62.1620 nd         1 A1A      -0.629000
     27 N3          -4.3410   -13.2430   -63.0500 na         1 A1A      -0.124500
     28 O1          -8.5960   -16.7730   -55.8300 o          1 A1A      -0.579100
     29 O2          -4.5250   -15.5340   -61.3570 o          1 A1A      -0.562100
     30 O3         -12.5580   -17.0760   -55.0430 o          1 A1A      -0.710000
     31 O4         -11.5780   -15.3600   -56.0850 o          1 A1A      -0.710000
     32 H1          -7.4360   -16.7730   -57.7570 ha         1 A1A       0.133000
     33 H2          -6.1220   -16.6730   -59.7880 ha         1 A1A       0.120000
     34 H3          -6.2430   -12.3900   -59.6960 ha         1 A1A       0.120000
     35 H4          -8.7780   -15.1640   -53.5170 hc         1 A1A       0.041700
     36 H5          -9.8530   -14.1200   -54.4220 hc         1 A1A       0.041700
     37 H6         -10.2680   -17.0860   -53.8190 hc         1 A1A       0.066700
     38 H7         -13.1710   -13.0530   -51.5010 ha         1 A1A       0.110000
     39 H8         -12.1510   -16.7910   -49.6390 ha         1 A1A       0.110000
     40 H9         -11.9890   -13.7440   -53.5180 ha         1 A1A       0.124500
     41 H10        -10.9620   -17.4590   -51.6660 ha         1 A1A       0.124500
     42 H11         -2.5290   -14.0820   -62.4000 h1         1 A1A       0.057700
     43 H12         -3.3170   -14.9520   -63.7260 h1         1 A1A       0.057700
     44 H13         -2.5270   -13.3980   -64.0260 h1         1 A1A       0.057700
     45 H14         -7.5290   -12.4790   -57.6400 ha         1 A1A       0.133000
     46 H15         -6.5670   -10.9440   -63.5170 h4         1 A1A       0.038100
     47 H16         -4.1840   -11.7920   -64.6010 h4         1 A1A       0.150000
     48 H17         -8.5740   -13.6480   -56.0570 hn         1 A1A       0.151000
     49 C20        -13.4700   -14.4220   -49.1950 c3         1 A1A       0.354300
@<TRIPOS>BOND
     1     1     6 1   
     2     1    25 1   
     3     1    28 2   
     4     2     3 ar  
     5     2    16 ar  
     6     2    25 1   
     7     3     4 ar  
     8     3    32 1   
     9     4    17 ar  
    10     4    33 1   
    11     5    16 ar  
    12     5    17 ar  
    13     5    34 1   
    14     6     7 1   
    15     6    35 1   
    16     6    36 1   
    17     7     8 1   
    18     7     9 1   
    19     7    37 1   
    20     8    30 1   
    21     8    31 1   
    22     9    13 ar  
    23     9    14 ar  
    24    10    12 ar  
    25    10    13 ar  
    26    10    38 1   
    27    11    12 ar  
    28    11    14 ar  
    29    11    39 1   
    30    12    49 1   
    31    13    40 1   
    32    14    41 1   
    33    15    27 1   
    34    15    42 1   
    35    15    43 1   
    36    15    44 1   
    37    16    45 1   
    38    17    18 1   
    39    18    19 1   
    40    18    29 2   
    41    19    26 2   
    42    19    27 1   
    43    20    21 2   
    44    20    26 1   
    45    20    46 1   
    46    21    27 1   
    47    21    47 1   
    48    22    49 1   
    49    23    49 1   
    50    24    49 1   
    51    25    48 1   
@<TRIPOS>SUBSTRUCTURE
     1 A1A         1 TEMP              0 ****  ****    0 ROOT
