@<TRIPOS>MOLECULE
A1A
   33    34     1     0     0
SMALL
No Charge or Current Charge


@<TRIPOS>ATOM
      1 C4           5.2790    22.9310   -19.4620 ca         1 A1A      -0.103300
      2 C5           5.9020    21.6990   -19.7490 ca         1 A1A      -0.077500
      3 C6           7.1610    21.3970   -19.2000 ca         1 A1A      -0.150000
      4 C7           7.7970    22.3220   -18.3590 ca         1 A1A       0.174000
      5 C8           7.1830    23.5480   -18.0620 ca         1 A1A      -0.150000
      6 C10          2.5750    24.2930   -22.0610 c5         1 A1A       0.146800
      7 N            2.5310    23.6280   -23.3900 n7         1 A1A      -0.825400
      8 C            4.7560    25.3220   -21.3340 c          1 A1A       0.603100
      9 O            5.7800    25.6320   -21.9290 o          1 A1A      -0.477000
     10 C1           4.6940    27.4550   -20.2040 c3         1 A1A       0.149900
     11 C11          3.9380    23.6060   -23.8320 c5         1 A1A       0.130800
     12 C12          4.6270    23.0630   -22.5650 c5         1 A1A      -0.105400
     13 C2           3.9860    23.9660   -21.4510 c5         1 A1A      -0.139000
     14 C3           3.9150    23.2650   -20.0610 c3         1 A1A      -0.010100
     15 C9           5.9240    23.8510   -18.6100 ca         1 A1A      -0.077500
     16 F            9.0060    22.0310   -17.8320 f          1 A1A      -0.179000
     17 H5           5.4130    20.9760   -20.3980 ha         1 A1A       0.116500
     18 H6           7.6420    20.4480   -19.4230 ha         1 A1A       0.132000
     19 H7           7.6800    24.2590   -17.4070 ha         1 A1A       0.132000
     20 H10          1.7530    23.9400   -21.4210 h1         1 A1A       0.062700
     21 H9           2.4330    25.3770   -22.1850 h1         1 A1A       0.062700
     22 H16          2.2350    22.6540   -23.2500 hn         1 A1A       0.398000
     23 H            4.0870    28.0110   -19.4790 h1         1 A1A       0.048367
     24 H2           5.7090    27.3630   -19.7970 h1         1 A1A       0.048367
     25 H1           4.7410    28.0430   -21.1300 h1         1 A1A       0.048367
     26 H13          4.0890    22.9510   -24.7030 h1         1 A1A       0.063700
     27 H12          4.2950    24.6130   -24.0950 h1         1 A1A       0.063700
     28 H15          4.3800    22.0040   -22.4220 hc         1 A1A       0.063700
     29 H14          5.7200    23.1270   -22.6120 hc         1 A1A       0.063700
     30 H3           3.3500    23.8890   -19.3570 hc         1 A1A       0.057700
     31 H4           3.3260    22.3430   -20.1510 hc         1 A1A       0.057700
     32 H8           5.4520    24.8020   -18.3720 ha         1 A1A       0.116500
     33 O1           4.1200    26.1580   -20.4480 os         1 A1A      -0.449100
@<TRIPOS>BOND
     1     1     2 ar  
     2     1    14 1   
     3     1    15 ar  
     4     2     3 ar  
     5     2    17 1   
     6     3     4 ar  
     7     3    18 1   
     8     4     5 ar  
     9     4    16 1   
    10     5    15 ar  
    11     5    19 1   
    12     6     7 1   
    13     6    13 1   
    14     6    20 1   
    15     6    21 1   
    16     7    11 1   
    17     7    22 1   
    18     8     9 2   
    19     8    13 1   
    20     8    33 1   
    21    10    23 1   
    22    10    24 1   
    23    10    25 1   
    24    10    33 1   
    25    11    12 1   
    26    11    26 1   
    27    11    27 1   
    28    12    13 1   
    29    12    28 1   
    30    12    29 1   
    31    13    14 1   
    32    14    30 1   
    33    14    31 1   
    34    15    32 1   
@<TRIPOS>SUBSTRUCTURE
     1 A1A         1 TEMP              0 ****  ****    0 ROOT
