@<TRIPOS>MOLECULE
A1A
   25    26     1     0     0
SMALL
abcg2


@<TRIPOS>ATOM
      1 N1          35.1610    39.5310    10.0570 n          1 A1A      -0.012400
      2 C4          36.1370    39.8300    11.0240 ca         1 A1A       0.026000
      3 C5          36.6220    38.8420    11.8780 ca         1 A1A      -0.164000
      4 C6          37.5840    39.1940    12.8130 ca         1 A1A      -0.057000
      5 C7          38.0620    40.4880    12.9190 ca         1 A1A      -0.191000
      6 C8          37.5700    41.4830    12.0660 ca         1 A1A       0.305000
      7 N           34.3090    40.5340     9.6370 n2         1 A1A      -0.417300
      8 C1          33.5650    40.0760     8.7090 c2         1 A1A       0.326300
      9 C2          34.9960    38.3630     9.3530 c          1 A1A       0.556000
     10 C3          33.8690    38.6540     8.3940 c5         1 A1A      -0.256700
     11 C9          36.6050    41.1370    11.1160 ca         1 A1A      -0.192000
     12 N2          38.0670    42.7660    12.1170 nv         1 A1A      -1.077000
     13 H5          36.2520    37.8290    11.8380 ha         1 A1A       0.135000
     14 H6          37.9640    38.4350    13.4860 ha         1 A1A       0.112000
     15 H7          38.8090    40.7350    13.6640 ha         1 A1A       0.113000
     16 H2          32.4950    41.8990     8.4430 hc         1 A1A       0.057033
     17 H           32.6970    40.9350     6.9700 hc         1 A1A       0.057033
     18 H1          31.5360    40.4320     8.1850 hc         1 A1A       0.057033
     19 H3          34.1800    38.5050     7.3570 hc         1 A1A       0.104200
     20 H4          33.0180    37.9910     8.5680 hc         1 A1A       0.104200
     21 H10         36.2170    41.8980    10.4510 ha         1 A1A       0.129000
     22 H9          37.4720    43.4870    11.7420 hn         1 A1A       0.449500
     23 H8          38.4890    43.0400    12.9900 hn         1 A1A       0.449500
     24 C           32.5180    40.8870     8.0450 c3         1 A1A      -0.115400
     25 O           35.6340    37.3420     9.4810 o          1 A1A      -0.499000
@<TRIPOS>BOND
     1     1     2 1   
     2     1     7 1   
     3     1     9 1   
     4     2     3 ar  
     5     2    11 ar  
     6     3     4 ar  
     7     3    13 1   
     8     4     5 ar  
     9     4    14 1   
    10     5     6 ar  
    11     5    15 1   
    12     6    11 ar  
    13     6    12 1   
    14     7     8 2   
    15     8    10 1   
    16     8    24 1   
    17     9    10 1   
    18     9    25 2   
    19    10    19 1   
    20    10    20 1   
    21    11    21 1   
    22    12    22 1   
    23    12    23 1   
    24    16    24 1   
    25    17    24 1   
    26    18    24 1   
@<TRIPOS>SUBSTRUCTURE
     1 A1A         1 TEMP              0 ****  ****    0 ROOT
