@<TRIPOS>MOLECULE
A1A
   25    26     1     0     0
SMALL
No Charge or Current Charge


@<TRIPOS>ATOM
      1 N1          35.1700    39.6600     9.9660 n          1 A1A      -0.012400
      2 C4          36.1450    39.9210    10.9940 ca         1 A1A       0.026000
      3 C5          36.5390    38.9130    11.9000 ca         1 A1A      -0.164000
      4 C6          37.4840    39.1860    12.9040 ca         1 A1A      -0.057000
      5 C7          38.0390    40.4720    13.0110 ca         1 A1A      -0.191000
      6 C8          37.6470    41.4820    12.1230 ca         1 A1A       0.305000
      7 N           34.2190    40.6030     9.6190 n2         1 A1A      -0.417300
      8 C1          33.5070    40.0590     8.6980 c2         1 A1A       0.326300
      9 C2          35.0860    38.4510     9.2330 c          1 A1A       0.556000
     10 C3          33.8860    38.6570     8.3360 c5         1 A1A      -0.256700
     11 C9          36.7050    41.2100    11.1230 ca         1 A1A      -0.192000
     12 N2          38.1860    42.7330    12.2340 nv         1 A1A      -1.077000
     13 H5          36.1070    37.9170    11.8400 ha         1 A1A       0.135000
     14 H6          37.7830    38.4040    13.5980 ha         1 A1A       0.112000
     15 H7          38.7690    40.6790    13.7890 ha         1 A1A       0.113000
     16 H2          32.2130    41.7730     8.4150 hc         1 A1A       0.057033
     17 H           32.5010    40.8210     6.9490 hc         1 A1A       0.057033
     18 H1          31.4130    40.2060     8.2060 hc         1 A1A       0.057033
     19 H3          34.1700    38.5190     7.2890 hc         1 A1A       0.104200
     20 H4          33.1110    37.9270     8.5890 hc         1 A1A       0.104200
     21 H10         36.4090    41.9980    10.4370 ha         1 A1A       0.129000
     22 H9          37.7930    43.5020    11.6940 hn         1 A1A       0.449500
     23 H8          38.7520    42.9700    13.0460 hn         1 A1A       0.449500
     24 C           32.3460    40.7540     8.0320 c3         1 A1A      -0.115400
     25 O           35.8500    37.4940     9.2770 o          1 A1A      -0.499000
@<TRIPOS>BOND
     1     1     2 1   
     2     1     7 1   
     3     1     9 1   
     4     2     3 ar  
     5     2    11 ar  
     6     3     4 ar  
     7     3    13 1   
     8     4     5 ar  
     9     4    14 1   
    10     5     6 ar  
    11     5    15 1   
    12     6    11 ar  
    13     6    12 1   
    14     7     8 2   
    15     8    10 1   
    16     8    24 1   
    17     9    10 1   
    18     9    25 2   
    19    10    19 1   
    20    10    20 1   
    21    11    21 1   
    22    12    22 1   
    23    12    23 1   
    24    16    24 1   
    25    17    24 1   
    26    18    24 1   
@<TRIPOS>SUBSTRUCTURE
     1 A1A         1 TEMP              0 ****  ****    0 ROOT
