@<TRIPOS>MOLECULE
A1A
   71    75     1     0     0
SMALL
No Charge or Current Charge


@<TRIPOS>ATOM
      1 C4         -34.7560   -14.0520   -85.7300 c5         1 A1A      -0.129400
      2 C5         -33.9630   -14.8240   -86.8100 c5         1 A1A       0.153300
      3 C6         -34.5370   -14.2050   -88.1210 c5         1 A1A       0.109000
      4 C10        -36.8530   -10.6710   -82.6620 ca         1 A1A      -0.095000
      5 C13        -36.2270   -12.0280   -80.2970 ca         1 A1A      -0.095500
      6 C15        -37.3980   -11.9450   -82.4350 ca         1 A1A      -0.090300
      7 C22        -36.6670   -11.7430   -90.4580 c3         1 A1A      -0.042000
      8 C24        -35.6840   -10.9950   -89.5150 c3         1 A1A      -0.094100
      9 C26        -34.3560    -8.8350   -79.3110 cc         1 A1A       0.300300
     10 C28        -33.1100    -9.7760   -77.7310 cd         1 A1A       0.413300
     11 C1         -37.0210   -12.9210   -85.6040 c          1 A1A       0.601100
     12 N2         -35.9330   -13.8530   -87.7530 n          1 A1A      -0.387800
     13 C3         -36.2060   -14.0570   -86.3020 c5         1 A1A       0.032700
     14 O7         -37.2000   -11.7770   -86.0030 o          1 A1A      -0.584100
     15 N9         -37.5380   -13.3970   -84.4180 ns         1 A1A      -0.504900
     16 C11        -36.0050   -10.0770   -81.7110 ca         1 A1A      -0.095500
     17 C12        -35.6830   -10.7390   -80.5040 ca         1 A1A      -0.004000
     18 C14        -37.0760   -12.6220   -81.2470 ca         1 A1A      -0.095000
     19 C16        -34.7870   -10.1450   -79.4730 cd         1 A1A      -0.182000
     20 O17        -34.2050   -16.2320   -86.7280 oh         1 A1A      -0.648000
     21 C18        -36.9750   -13.6740   -88.6950 c          1 A1A       0.616100
     22 C19        -36.6220   -13.2930   -90.1610 c3         1 A1A       0.023300
     23 O20        -38.1390   -13.8060   -88.3310 o          1 A1A      -0.598100
     24 N21        -37.3630   -14.1420   -91.1260 na         1 A1A       0.128800
     25 C25        -36.2180   -11.4710   -91.9220 c3         1 A1A      -0.094100
     26 N27        -33.4210    -8.6330   -78.3250 nc         1 A1A      -0.636000
     27 S29        -33.9570   -11.1920   -78.3240 ss         1 A1A      -0.033400
     28 N31        -36.6850   -14.9060   -92.0320 nc         1 A1A      -0.220800
     29 N32        -37.5810   -15.5360   -92.7410 nd         1 A1A      -0.360000
     30 C33        -38.8380   -15.1860   -92.2920 cd         1 A1A       0.222300
     31 C34        -38.7220   -14.3020   -91.2600 cc         1 A1A      -0.173000
     32 C35        -40.1140   -15.7080   -92.8550 cx         1 A1A      -0.154000
     33 C36        -40.2710   -15.9730   -94.3360 cx         1 A1A      -0.117400
     34 C37        -40.2290   -17.1290   -93.3630 cx         1 A1A      -0.117400
     35 H1         -34.6910   -14.5130   -84.7370 hc         1 A1A       0.066700
     36 H2         -34.3720   -13.0290   -85.6320 hc         1 A1A       0.066700
     37 H3         -32.8840   -14.6300   -86.7290 h1         1 A1A       0.055700
     38 H4         -34.4900   -14.9230   -88.9500 h1         1 A1A       0.068700
     39 H5         -33.9720   -13.3080   -88.4070 h1         1 A1A       0.068700
     40 H8         -37.0760   -10.1420   -83.5860 ha         1 A1A       0.112500
     41 H9         -36.0170   -12.5820   -79.3870 ha         1 A1A       0.118000
     42 H10        -35.9740   -11.1010   -88.4630 hc         1 A1A       0.044589
     43 H11        -34.6620   -11.3750   -89.6290 hc         1 A1A       0.044589
     44 H12        -35.6650    -9.9210   -89.7410 hc         1 A1A       0.044589
     45 H13        -32.3950    -9.8780   -76.9240 h5         1 A1A       0.053100
     46 H14        -36.7090   -15.0200   -86.1390 h1         1 A1A       0.077700
     47 H15        -37.3280   -14.3570   -84.1730 hn         1 A1A       0.317500
     48 H16        -35.5820    -9.1120   -81.9560 ha         1 A1A       0.118000
     49 H17        -37.4830   -13.6130   -81.0570 ha         1 A1A       0.112500
     50 H18        -33.7770   -16.5490   -85.9020 ho         1 A1A       0.447000
     51 H19        -35.5750   -13.5740   -90.3020 h1         1 A1A       0.093700
     52 H23        -35.2250   -11.8940   -92.1140 hc         1 A1A       0.044589
     53 H24        -36.9180   -11.9080   -92.6440 hc         1 A1A       0.044589
     54 H25        -36.1690   -10.3930   -92.1240 hc         1 A1A       0.044589
     55 H26        -34.6200    -6.6960   -79.4500 hc         1 A1A       0.051700
     56 H27        -34.2990    -7.4910   -80.9950 hc         1 A1A       0.051700
     57 H28        -35.8990    -7.6320   -80.2180 hc         1 A1A       0.051700
     58 H29        -39.4620   -13.8110   -90.6440 h4         1 A1A       0.183000
     59 H30        -40.9870   -15.3090   -92.3430 hc         1 A1A       0.078700
     60 H31        -39.4080   -15.8230   -94.9800 hc         1 A1A       0.075200
     61 H32        -41.2270   -15.7310   -94.7960 hc         1 A1A       0.075200
     62 H33        -41.1570   -17.6620   -93.1700 hc         1 A1A       0.075200
     63 H34        -39.3380   -17.7520   -93.3570 hc         1 A1A       0.075200
     64 C23        -38.0870   -11.1410   -90.2570 c3         1 A1A      -0.094100
     65 C8         -38.3060   -12.5920   -83.4700 c3         1 A1A       0.155300
     66 C30        -34.8190    -7.6010   -80.0360 c3         1 A1A      -0.122400
     67 H6         -38.8690   -11.8200   -84.0110 h1         1 A1A       0.058200
     68 H7         -39.0360   -13.2410   -82.9670 h1         1 A1A       0.058200
     69 H20        -38.4520   -11.3000   -89.2360 hc         1 A1A       0.044589
     70 H21        -38.0760   -10.0580   -90.4360 hc         1 A1A       0.044589
     71 H22        -38.8110   -11.5750   -90.9560 hc         1 A1A       0.044589
@<TRIPOS>BOND
     1     1     2 1   
     2     1    13 1   
     3     1    35 1   
     4     1    36 1   
     5     2     3 1   
     6     2    20 1   
     7     2    37 1   
     8     3    12 1   
     9     3    38 1   
    10     3    39 1   
    11     4     6 ar  
    12     4    16 ar  
    13     4    40 1   
    14     5    17 ar  
    15     5    18 ar  
    16     5    41 1   
    17     6    18 ar  
    18     6    65 1   
    19     7     8 1   
    20     7    22 1   
    21     7    25 1   
    22     7    64 1   
    23     8    42 1   
    24     8    43 1   
    25     8    44 1   
    26     9    19 2   
    27     9    26 1   
    28     9    66 1   
    29    10    26 2   
    30    10    27 1   
    31    10    45 1   
    32    11    13 1   
    33    11    14 2   
    34    11    15 1   
    35    12    13 1   
    36    12    21 1   
    37    13    46 1   
    38    15    47 1   
    39    15    65 1   
    40    16    17 ar  
    41    16    48 1   
    42    17    19 1   
    43    18    49 1   
    44    19    27 1   
    45    20    50 1   
    46    21    22 1   
    47    21    23 2   
    48    22    24 1   
    49    22    51 1   
    50    24    28 1   
    51    24    31 1   
    52    25    52 1   
    53    25    53 1   
    54    25    54 1   
    55    28    29 2   
    56    29    30 1   
    57    30    31 2   
    58    30    32 1   
    59    31    58 1   
    60    32    33 1   
    61    32    34 1   
    62    32    59 1   
    63    33    34 1   
    64    33    60 1   
    65    33    61 1   
    66    34    62 1   
    67    34    63 1   
    68    55    66 1   
    69    56    66 1   
    70    57    66 1   
    71    64    69 1   
    72    64    70 1   
    73    64    71 1   
    74    65    67 1   
    75    65    68 1   
@<TRIPOS>SUBSTRUCTURE
     1 A1A         1 TEMP              0 ****  ****    0 ROOT
