@<TRIPOS>MOLECULE
A1A
   71    75     1     0     0
SMALL
abcg2


@<TRIPOS>ATOM
      1 C4         -35.0160   -14.9410   -85.4470 c5         1 A1A      -0.129400
      2 C5         -34.1650   -15.4800   -86.5910 c5         1 A1A       0.153300
      3 C6         -34.5280   -14.5360   -87.7220 c5         1 A1A       0.109000
      4 C10        -37.5300   -10.5090   -82.7330 ca         1 A1A      -0.095000
      5 C13        -35.4180   -11.7270   -81.4350 ca         1 A1A      -0.095500
      6 C15        -37.3950   -11.8890   -82.8110 ca         1 A1A      -0.090300
      7 C22        -36.3200   -11.9850   -89.9720 c3         1 A1A      -0.042000
      8 C24        -35.1810   -11.4840   -89.0800 c3         1 A1A      -0.094100
      9 C26        -34.7860    -8.4590   -79.7850 cc         1 A1A       0.300300
     10 C28        -32.5870    -8.5260   -79.6860 cd         1 A1A       0.413300
     11 C1         -36.9950   -13.3960   -85.4510 c          1 A1A       0.601100
     12 N2         -35.9490   -14.2850   -87.4970 n          1 A1A      -0.387800
     13 C3         -36.3430   -14.5890   -86.1330 c5         1 A1A       0.032700
     14 O7         -36.7480   -12.2440   -85.7660 o          1 A1A      -0.584100
     15 N9         -37.7970   -13.7170   -84.4250 ns         1 A1A      -0.504900
     16 C11        -36.6240    -9.7410   -82.0190 ca         1 A1A      -0.095500
     17 C12        -35.5520   -10.3380   -81.3570 ca         1 A1A      -0.004000
     18 C14        -36.3260   -12.4890   -82.1510 ca         1 A1A      -0.095000
     19 C16        -34.5830    -9.5250   -80.6210 cd         1 A1A      -0.182000
     20 O17        -34.5570   -16.7760   -86.9770 oh         1 A1A      -0.648000
     21 C18        -36.8940   -13.9410   -88.3850 c          1 A1A       0.616100
     22 C19        -36.4420   -13.5270   -89.7850 c3         1 A1A       0.023300
     23 O20        -38.0790   -13.9340   -88.0840 o          1 A1A      -0.598100
     24 N21        -37.2990   -14.1530   -90.7750 na         1 A1A       0.128800
     25 C25        -35.9480   -11.7090   -91.4310 c3         1 A1A      -0.094100
     26 N27        -33.6440    -7.9100   -79.2690 nc         1 A1A      -0.636000
     27 S29        -32.8890    -9.8320   -80.7500 ss         1 A1A      -0.033400
     28 N31        -36.7240   -14.8600   -91.7370 nc         1 A1A      -0.220800
     29 N32        -37.6410   -15.2550   -92.5490 nd         1 A1A      -0.360000
     30 C33        -38.8410   -14.8030   -92.1240 cd         1 A1A       0.222300
     31 C34        -38.6320   -14.0880   -90.9720 cc         1 A1A      -0.173000
     32 C35        -40.1040   -15.0620   -92.8290 cx         1 A1A      -0.154000
     33 C36        -40.1330   -15.0910   -94.3330 cx         1 A1A      -0.117400
     34 C37        -40.3120   -16.3570   -93.5640 cx         1 A1A      -0.117400
     35 H1         -35.1480   -15.6540   -84.6330 hc         1 A1A       0.066700
     36 H2         -34.5440   -14.0470   -85.0340 hc         1 A1A       0.066700
     37 H3         -33.0950   -15.4290   -86.3620 h1         1 A1A       0.055700
     38 H4         -34.3400   -14.9850   -88.6960 h1         1 A1A       0.068700
     39 H5         -33.9430   -13.6170   -87.6490 h1         1 A1A       0.068700
     40 H8         -38.3450   -10.0200   -83.2540 ha         1 A1A       0.112500
     41 H9         -34.6020   -12.2210   -80.9210 ha         1 A1A       0.118000
     42 H10        -35.3810   -11.6430   -88.0200 hc         1 A1A       0.044589
     43 H11        -34.2350   -11.9670   -89.3310 hc         1 A1A       0.044589
     44 H12        -35.0490   -10.4110   -89.2280 hc         1 A1A       0.044589
     45 H13        -31.5780    -8.2610   -79.3990 h5         1 A1A       0.053100
     46 H14        -37.0210   -15.4490   -86.1150 h1         1 A1A       0.077700
     47 H15        -37.9710   -14.6870   -84.2150 hn         1 A1A       0.317500
     48 H16        -36.7350    -8.6640   -82.0080 ha         1 A1A       0.118000
     49 H17        -36.1950   -13.5640   -82.1950 ha         1 A1A       0.112500
     50 H18        -34.4450   -17.3660   -86.2250 ho         1 A1A       0.447000
     51 H19        -35.4570   -13.9400   -90.0060 h1         1 A1A       0.093700
     52 H23        -35.0550   -12.2620   -91.7320 hc         1 A1A       0.044589
     53 H24        -36.7530   -11.9630   -92.1230 hc         1 A1A       0.044589
     54 H25        -35.7360   -10.6460   -91.5580 hc         1 A1A       0.044589
     55 H26        -36.0760    -7.5720   -78.3430 hc         1 A1A       0.051700
     56 H27        -36.3590    -7.0090   -79.9840 hc         1 A1A       0.051700
     57 H28        -36.9110    -8.6080   -79.5030 hc         1 A1A       0.051700
     58 H29        -39.3120   -13.5770   -90.3160 h4         1 A1A       0.183000
     59 H30        -40.9730   -14.6400   -92.3400 hc         1 A1A       0.078700
     60 H31        -39.1950   -14.9390   -94.8520 hc         1 A1A       0.075200
     61 H32        -40.9950   -14.6590   -94.8260 hc         1 A1A       0.075200
     62 H33        -41.2980   -16.8020   -93.5240 hc         1 A1A       0.075200
     63 H34        -39.4960   -17.0680   -93.5600 hc         1 A1A       0.075200
     64 C23        -37.5940   -11.2150   -89.6260 c3         1 A1A      -0.094100
     65 C8         -38.3980   -12.7100   -83.5830 c3         1 A1A       0.155300
     66 C30        -36.1050    -7.8860   -79.3850 c3         1 A1A      -0.122400
     67 H6         -39.0290   -12.0460   -84.1790 h1         1 A1A       0.058200
     68 H7         -39.0600   -13.2310   -82.8900 h1         1 A1A       0.058200
     69 H20        -37.8780   -11.3220   -88.5810 hc         1 A1A       0.044589
     70 H21        -37.4220   -10.1530   -89.8090 hc         1 A1A       0.044589
     71 H22        -38.4420   -11.5080   -90.2440 hc         1 A1A       0.044589
@<TRIPOS>BOND
     1     1     2 1   
     2     1    13 1   
     3     1    35 1   
     4     1    36 1   
     5     2     3 1   
     6     2    20 1   
     7     2    37 1   
     8     3    12 1   
     9     3    38 1   
    10     3    39 1   
    11     4     6 ar  
    12     4    16 ar  
    13     4    40 1   
    14     5    17 ar  
    15     5    18 ar  
    16     5    41 1   
    17     6    18 ar  
    18     6    65 1   
    19     7     8 1   
    20     7    22 1   
    21     7    25 1   
    22     7    64 1   
    23     8    42 1   
    24     8    43 1   
    25     8    44 1   
    26     9    19 2   
    27     9    26 1   
    28     9    66 1   
    29    10    26 2   
    30    10    27 1   
    31    10    45 1   
    32    11    13 1   
    33    11    14 2   
    34    11    15 1   
    35    12    13 1   
    36    12    21 1   
    37    13    46 1   
    38    15    47 1   
    39    15    65 1   
    40    16    17 ar  
    41    16    48 1   
    42    17    19 1   
    43    18    49 1   
    44    19    27 1   
    45    20    50 1   
    46    21    22 1   
    47    21    23 2   
    48    22    24 1   
    49    22    51 1   
    50    24    28 1   
    51    24    31 1   
    52    25    52 1   
    53    25    53 1   
    54    25    54 1   
    55    28    29 2   
    56    29    30 1   
    57    30    31 2   
    58    30    32 1   
    59    31    58 1   
    60    32    33 1   
    61    32    34 1   
    62    32    59 1   
    63    33    34 1   
    64    33    60 1   
    65    33    61 1   
    66    34    62 1   
    67    34    63 1   
    68    55    66 1   
    69    56    66 1   
    70    57    66 1   
    71    64    69 1   
    72    64    70 1   
    73    64    71 1   
    74    65    67 1   
    75    65    68 1   
@<TRIPOS>SUBSTRUCTURE
     1 A1A         1 TEMP              0 ****  ****    0 ROOT
