@<TRIPOS>MOLECULE
A1A
   49    51     1     0     0
SMALL
abcg2


@<TRIPOS>ATOM
      1 C1         -37.8200   -29.1580    11.8930 c          1 A1A       0.651100
      2 C2         -39.1530   -28.6060    13.9270 ca         1 A1A       0.054000
      3 C3         -39.9040   -29.2160    14.9410 ca         1 A1A      -0.186500
      4 C4         -40.4630   -28.4690    15.9530 ca         1 A1A      -0.019000
      5 C11        -39.5290   -26.4830    15.0010 ca         1 A1A      -0.019000
      6 C13        -37.6250   -30.3110    10.9370 c3         1 A1A      -0.111400
      7 C14        -36.1890   -30.4230    10.4400 c3         1 A1A      -0.181400
      8 C15        -35.1810   -30.6730    11.5980 c          1 A1A       0.731000
      9 C16        -36.0690   -31.4950     9.3920 ca         1 A1A       0.035700
     10 C18        -36.2890   -33.8150     8.7290 ca         1 A1A      -0.067500
     11 C21        -35.5620   -32.1800     7.1260 ca         1 A1A      -0.067500
     12 C19        -35.8820   -33.4970     7.4400 ca         1 A1A      -0.230300
     13 C17        -36.3800   -32.8200     9.6900 ca         1 A1A      -0.118500
     14 C22        -35.6580   -31.1960     8.0950 ca         1 A1A      -0.118500
     15 C10        -42.5790   -24.1820    18.6170 c3         1 A1A       0.064900
     16 C12        -38.9730   -27.2210    13.9690 ca         1 A1A      -0.186500
     17 C5         -40.2780   -27.0840    16.0120 ca         1 A1A      -0.220600
     18 C6         -40.9670   -26.3390    17.0880 c          1 A1A       0.537200
     19 C7         -40.4540   -25.0250    17.5020 cc         1 A1A       0.323000
     20 C8         -39.1500   -23.3900    17.9190 cd         1 A1A       0.224900
     21 C9         -40.3650   -23.0770    18.4770 cc         1 A1A      -0.235000
     22 F1         -36.4510   -34.2200     5.2750 f          1 A1A      -0.126000
     23 F2         -34.4870   -34.7120     5.9900 f          1 A1A      -0.126000
     24 F3         -36.2070   -35.7380     6.7800 f          1 A1A      -0.126000
     25 N1         -38.6610   -29.4390    12.9330 ns         1 A1A      -0.138000
     26 N2         -39.2200   -24.5950    17.3170 nd         1 A1A      -0.626000
     27 N3         -41.1850   -24.1210    18.2140 na         1 A1A      -0.126500
     28 O1         -37.3350   -28.0590    11.7010 o          1 A1A      -0.582100
     29 O2         -41.9420   -26.8140    17.6460 o          1 A1A      -0.567100
     30 O3         -34.0040   -30.8750    11.2530 o          1 A1A      -0.710000
     31 O4         -35.6390   -30.6340    12.7550 o          1 A1A      -0.710000
     32 H1         -40.0510   -30.2890    14.9270 ha         1 A1A       0.132000
     33 H2         -41.0420   -28.9720    16.7150 ha         1 A1A       0.120000
     34 H3         -39.3800   -25.4130    14.9980 ha         1 A1A       0.120000
     35 H4         -38.2960   -30.1260    10.0900 hc         1 A1A       0.039700
     36 H5         -37.9500   -31.2500    11.3860 hc         1 A1A       0.039700
     37 H6         -35.9100   -29.4720     9.9750 hc         1 A1A       0.066700
     38 H7         -36.5390   -34.8310     9.0020 ha         1 A1A       0.110000
     39 H8         -35.2400   -31.9100     6.1280 ha         1 A1A       0.110000
     40 H9         -36.6950   -33.0910    10.6900 ha         1 A1A       0.120500
     41 H10        -35.4120   -30.1730     7.8360 ha         1 A1A       0.120500
     42 H11        -42.8680   -23.1990    18.9770 h1         1 A1A       0.057033
     43 H12        -43.2110   -24.4440    17.7740 h1         1 A1A       0.057033
     44 H13        -42.7240   -24.9070    19.4130 h1         1 A1A       0.057033
     45 H14        -38.4130   -26.7110    13.2030 ha         1 A1A       0.132000
     46 H15        -38.2450   -22.8030    17.9300 h4         1 A1A       0.039100
     47 H16        -40.7030   -22.2090    19.0190 h4         1 A1A       0.150000
     48 H17        -38.9430   -30.4040    13.0170 hn         1 A1A       0.152000
     49 C20        -35.7620   -34.5420     6.3800 c3         1 A1A       0.355300
@<TRIPOS>BOND
     1     1     6 1   
     2     1    25 1   
     3     1    28 2   
     4     2     3 ar  
     5     2    16 ar  
     6     2    25 1   
     7     3     4 ar  
     8     3    32 1   
     9     4    17 ar  
    10     4    33 1   
    11     5    16 ar  
    12     5    17 ar  
    13     5    34 1   
    14     6     7 1   
    15     6    35 1   
    16     6    36 1   
    17     7     8 1   
    18     7     9 1   
    19     7    37 1   
    20     8    30 1   
    21     8    31 1   
    22     9    13 ar  
    23     9    14 ar  
    24    10    12 ar  
    25    10    13 ar  
    26    10    38 1   
    27    11    12 ar  
    28    11    14 ar  
    29    11    39 1   
    30    12    49 1   
    31    13    40 1   
    32    14    41 1   
    33    15    27 1   
    34    15    42 1   
    35    15    43 1   
    36    15    44 1   
    37    16    45 1   
    38    17    18 1   
    39    18    19 1   
    40    18    29 2   
    41    19    26 2   
    42    19    27 1   
    43    20    21 2   
    44    20    26 1   
    45    20    46 1   
    46    21    27 1   
    47    21    47 1   
    48    22    49 1   
    49    23    49 1   
    50    24    49 1   
    51    25    48 1   
@<TRIPOS>SUBSTRUCTURE
     1 A1A         1 TEMP              0 ****  ****    0 ROOT
