@<TRIPOS>MOLECULE
A1A
   49    51     1     0     0
SMALL
No Charge or Current Charge


@<TRIPOS>ATOM
      1 C1         -38.4210   -29.0360    11.4020 c          1 A1A       0.651100
      2 C2         -39.4540   -28.5260    13.6990 ca         1 A1A       0.054000
      3 C3         -39.9020   -29.1740    14.8630 ca         1 A1A      -0.186500
      4 C4         -40.3850   -28.4380    15.9580 ca         1 A1A      -0.019000
      5 C11        -39.9940   -26.3780    14.7400 ca         1 A1A      -0.019000
      6 C13        -38.0860   -30.2680    10.5420 c3         1 A1A      -0.111400
      7 C14        -36.5490   -30.5260    10.4640 c3         1 A1A      -0.181400
      8 C15        -35.9480   -30.8600    11.8460 c          1 A1A       0.731000
      9 C16        -36.1720   -31.6020     9.4410 ca         1 A1A       0.035700
     10 C18        -36.4740   -33.8200     8.4540 ca         1 A1A      -0.067500
     11 C21        -34.7830   -32.3250     7.5620 ca         1 A1A      -0.067500
     12 C19        -35.4410   -33.5720     7.5270 ca         1 A1A      -0.230300
     13 C17        -36.8320   -32.8470     9.4030 ca         1 A1A      -0.118500
     14 C22        -35.1430   -31.3540     8.5120 ca         1 A1A      -0.118500
     15 C10        -41.9750   -24.2770    19.3760 c3         1 A1A       0.064900
     16 C12        -39.5130   -27.1180    13.6450 ca         1 A1A      -0.186500
     17 C5         -40.4190   -27.0290    15.9190 ca         1 A1A      -0.220600
     18 C6         -40.9690   -26.2730    17.1190 c          1 A1A       0.537200
     19 C7         -40.3820   -24.9170    17.4680 cc         1 A1A       0.323000
     20 C8         -39.0890   -23.1540    17.5110 cd         1 A1A       0.224900
     21 C9         -40.0150   -22.9490    18.4920 cc         1 A1A      -0.235000
     22 F1         -35.7810   -34.4860     5.3510 f          1 A1A      -0.126000
     23 F2         -33.7530   -34.5540     6.1310 f          1 A1A      -0.126000
     24 F3         -35.2630   -35.8900     6.9290 f          1 A1A      -0.126000
     25 N1         -38.9830   -29.3400    12.6340 ns         1 A1A      -0.138000
     26 N2         -39.3100   -24.3610    16.8900 nd         1 A1A      -0.626000
     27 N3         -40.8290   -24.0610    18.4760 na         1 A1A      -0.126500
     28 O1         -38.2180   -27.8970    10.9940 o          1 A1A      -0.582100
     29 O2         -41.8860   -26.7860    17.7600 o          1 A1A      -0.567100
     30 O3         -35.0910   -30.1130    12.2910 o          1 A1A      -0.710000
     31 O4         -36.3690   -31.8380    12.4460 o          1 A1A      -0.710000
     32 H1         -39.8770   -30.2600    14.9240 ha         1 A1A       0.132000
     33 H2         -40.7250   -28.9700    16.8450 ha         1 A1A       0.120000
     34 H3         -40.0580   -25.2970    14.6430 ha         1 A1A       0.120000
     35 H4         -38.4520   -30.0870     9.5240 hc         1 A1A       0.039700
     36 H5         -38.5820   -31.1540    10.9560 hc         1 A1A       0.039700
     37 H6         -36.0840   -29.5870    10.1380 hc         1 A1A       0.066700
     38 H7         -37.0070   -34.7690     8.4460 ha         1 A1A       0.110000
     39 H8         -33.9900   -32.1000     6.8520 ha         1 A1A       0.110000
     40 H9         -37.6230   -33.0710    10.1130 ha         1 A1A       0.120500
     41 H10        -34.6190   -30.4020     8.5210 ha         1 A1A       0.120500
     42 H11        -42.1060   -23.4060    20.0300 h1         1 A1A       0.057033
     43 H12        -42.8890   -24.4200    18.7850 h1         1 A1A       0.057033
     44 H13        -41.7980   -25.1650    19.9950 h1         1 A1A       0.057033
     45 H14        -39.2030   -26.5740    12.7600 ha         1 A1A       0.132000
     46 H15        -38.2740   -22.5030    17.2180 h4         1 A1A       0.039100
     47 H16        -40.1450   -22.1210    19.1770 h4         1 A1A       0.150000
     48 H17        -39.0730   -30.3320    12.8110 hn         1 A1A       0.152000
     49 C20        -35.0570   -34.6290     6.4840 c3         1 A1A       0.355300
@<TRIPOS>BOND
     1     1     6 1   
     2     1    25 1   
     3     1    28 2   
     4     2     3 ar  
     5     2    16 ar  
     6     2    25 1   
     7     3     4 ar  
     8     3    32 1   
     9     4    17 ar  
    10     4    33 1   
    11     5    16 ar  
    12     5    17 ar  
    13     5    34 1   
    14     6     7 1   
    15     6    35 1   
    16     6    36 1   
    17     7     8 1   
    18     7     9 1   
    19     7    37 1   
    20     8    30 1   
    21     8    31 1   
    22     9    13 ar  
    23     9    14 ar  
    24    10    12 ar  
    25    10    13 ar  
    26    10    38 1   
    27    11    12 ar  
    28    11    14 ar  
    29    11    39 1   
    30    12    49 1   
    31    13    40 1   
    32    14    41 1   
    33    15    27 1   
    34    15    42 1   
    35    15    43 1   
    36    15    44 1   
    37    16    45 1   
    38    17    18 1   
    39    18    19 1   
    40    18    29 2   
    41    19    26 2   
    42    19    27 1   
    43    20    21 2   
    44    20    26 1   
    45    20    46 1   
    46    21    27 1   
    47    21    47 1   
    48    22    49 1   
    49    23    49 1   
    50    24    49 1   
    51    25    48 1   
@<TRIPOS>SUBSTRUCTURE
     1 A1A         1 TEMP              0 ****  ****    0 ROOT
