@<TRIPOS>MOLECULE
A1A
   70    75     1     0     0
SMALL
abcg2


@<TRIPOS>ATOM
      1 N1          -2.1130   -30.9570    27.2770 n          1 A1A      -0.371800
      2 C4          -1.3850   -26.9410    28.1980 ca         1 A1A      -0.211000
      3 C5          -1.6260   -28.2490    27.7800 ca         1 A1A      -0.023300
      4 C6          -2.9310   -28.6710    27.5490 ca         1 A1A      -0.125300
      5 C7          -0.4690   -29.1950    27.6110 c6         1 A1A      -0.014100
      6 C8          -0.8740   -30.4030    26.8040 cx         1 A1A       0.053400
      7 C10         -2.2780   -32.1300    27.9330 c          1 A1A       0.623700
      8 C13          0.9580   -33.2240    29.5810 ca         1 A1A      -0.117500
      9 C15          0.0780   -35.0420    28.2800 ca         1 A1A      -0.117500
     10 C17         -3.8100   -30.1390    25.6780 ca         1 A1A      -0.138300
     11 C20         -4.5200   -31.2630    25.2720 ca         1 A1A      -0.056500
     12 C21         -4.9940   -31.3990    23.9740 ca         1 A1A      -0.180500
     13 C22         -4.7610   -30.3890    23.0440 ca         1 A1A       0.148100
     14 C24         -3.6000   -29.1310    24.7410 ca         1 A1A      -0.056500
     15 C26         -6.0720   -31.4000    19.8130 cy         1 A1A      -0.103700
     16 C28         -4.8620   -31.4360    18.8660 cy         1 A1A       0.152300
     17 C1          -3.9730   -27.7660    27.7490 ca         1 A1A      -0.062000
     18 C11         -1.0710   -32.9240    28.3210 ca         1 A1A      -0.133600
     19 C12         -0.0970   -32.4190    29.1750 ca         1 A1A      -0.076500
     20 C14          1.0540   -34.5330    29.1270 ca         1 A1A      -0.096000
     21 C16         -0.9910   -34.2470    27.8950 ca         1 A1A      -0.076500
     22 C18          0.1880   -31.2470    26.1800 cx         1 A1A      -0.120900
     23 C19         -0.6330   -30.3460    25.3170 cx         1 A1A      -0.120900
     24 C2          -3.7410   -26.4690    28.1600 ca         1 A1A      -0.144000
     25 C23         -4.0630   -29.2480    23.4430 ca         1 A1A      -0.180500
     26 C25         -5.8290   -31.5880    21.2840 c3         1 A1A       0.175600
     27 C27         -6.5680   -32.6230    19.0260 cy         1 A1A       0.152300
     28 C3          -2.4300   -26.0470    28.3870 ca         1 A1A       0.144100
     29 C30         -3.9730   -32.8500    16.2350 c3         1 A1A      -0.076400
     30 C31         -3.2620   -33.9940    15.5260 c3         1 A1A      -0.090100
     31 C9          -3.2680   -30.0740    27.0960 c6         1 A1A       0.216300
     32 N2          -5.6410   -32.2730    17.9480 nq         1 A1A      -0.711600
     33 O1          -2.2410   -24.7720    28.7830 oh         1 A1A      -0.532100
     34 O2          -5.1700   -30.4260    21.7610 os         1 A1A      -0.346100
     35 O3          -3.3820   -32.5750    28.2180 o          1 A1A      -0.600100
     36 H1          -0.3620   -26.6220    28.3740 ha         1 A1A       0.111000
     37 H2           0.3670   -28.6810    27.1310 hc         1 A1A       0.057700
     38 H3          -0.1080   -29.5030    28.5970 hc         1 A1A       0.057700
     39 H4           1.7070   -32.8270    30.2540 ha         1 A1A       0.115000
     40 H5           0.1440   -36.0620    27.9250 ha         1 A1A       0.115000
     41 H6          -4.7090   -32.0600    25.9790 ha         1 A1A       0.125000
     42 H7          -5.5430   -32.2930    23.7110 ha         1 A1A       0.122000
     43 H8          -3.0540   -28.2380    25.0200 ha         1 A1A       0.125000
     44 H9          -4.0120   -31.9710    19.3170 h1         1 A1A       0.049450
     45 H10         -4.4990   -30.4920    18.4550 h1         1 A1A       0.049450
     46 H11         -4.9940   -28.0860    27.5750 ha         1 A1A       0.122000
     47 H12         -0.1620   -31.4030    29.5410 ha         1 A1A       0.121000
     48 H13          1.8840   -35.1550    29.4360 ha         1 A1A       0.114000
     49 H14         -1.7540   -34.6520    27.2420 ha         1 A1A       0.121000
     50 H15          0.0250   -32.3100    26.0760 hc         1 A1A       0.081700
     51 H16          1.2120   -30.9810    26.4100 hc         1 A1A       0.081700
     52 H17         -1.3530   -30.8200    24.6660 hc         1 A1A       0.081700
     53 H18         -0.1950   -29.4390    24.9190 hc         1 A1A       0.081700
     54 H19         -4.5650   -25.7830    28.3100 ha         1 A1A       0.132000
     55 H20         -3.8840   -28.4560    22.7260 ha         1 A1A       0.122000
     56 H21         -6.7770   -31.7410    21.8130 h1         1 A1A       0.037200
     57 H22         -5.2080   -32.4750    21.4520 h1         1 A1A       0.037200
     58 H23         -7.6230   -32.6630    18.7470 h1         1 A1A       0.049450
     59 H24         -6.3050   -33.5650    19.5300 h1         1 A1A       0.049450
     60 H25         -5.7150   -33.9800    16.7860 h1         1 A1A       0.029200
     61 H26         -4.4330   -34.0020    17.9950 h1         1 A1A       0.029200
     62 H27         -3.2330   -32.2040    16.7170 hc         1 A1A       0.046200
     63 H28         -4.5010   -32.2270    15.5090 hc         1 A1A       0.046200
     64 H29         -2.5520   -33.6230    14.7870 hc         1 A1A       0.032367
     65 H30         -2.7090   -34.6150    16.2330 hc         1 A1A       0.032367
     66 H31         -3.9730   -34.6390    15.0070 hc         1 A1A       0.032367
     67 H32         -4.0500   -30.4510    27.7570 h1         1 A1A       0.093700
     68 H33         -1.3030   -24.5950    28.9140 ho         1 A1A       0.464000
     69 H34         -6.7030   -30.5270    19.6350 hc         1 A1A       0.085700
     70 C29         -4.9630   -33.3520    17.2750 c3         1 A1A       0.164800
@<TRIPOS>BOND
     1     1     6 1   
     2     1     7 1   
     3     1    31 1   
     4     2     3 ar  
     5     2    28 ar  
     6     2    36 1   
     7     3     4 ar  
     8     3     5 1   
     9     4    17 ar  
    10     4    31 1   
    11     5     6 1   
    12     5    37 1   
    13     5    38 1   
    14     6    22 1   
    15     6    23 1   
    16     7    18 1   
    17     7    35 2   
    18     8    19 ar  
    19     8    20 ar  
    20     8    39 1   
    21     9    20 ar  
    22     9    21 ar  
    23     9    40 1   
    24    10    11 ar  
    25    10    14 ar  
    26    10    31 1   
    27    11    12 ar  
    28    11    41 1   
    29    12    13 ar  
    30    12    42 1   
    31    13    25 ar  
    32    13    34 1   
    33    14    25 ar  
    34    14    43 1   
    35    15    16 1   
    36    15    26 1   
    37    15    27 1   
    38    15    69 1   
    39    16    32 1   
    40    16    44 1   
    41    16    45 1   
    42    17    24 ar  
    43    17    46 1   
    44    18    19 ar  
    45    18    21 ar  
    46    19    47 1   
    47    20    48 1   
    48    21    49 1   
    49    22    23 1   
    50    22    50 1   
    51    22    51 1   
    52    23    52 1   
    53    23    53 1   
    54    24    28 ar  
    55    24    54 1   
    56    25    55 1   
    57    26    34 1   
    58    26    56 1   
    59    26    57 1   
    60    27    32 1   
    61    27    58 1   
    62    27    59 1   
    63    28    33 1   
    64    29    30 1   
    65    29    62 1   
    66    29    63 1   
    67    29    70 1   
    68    30    64 1   
    69    30    65 1   
    70    30    66 1   
    71    31    67 1   
    72    32    70 1   
    73    33    68 1   
    74    60    70 1   
    75    61    70 1   
@<TRIPOS>SUBSTRUCTURE
     1 A1A         1 TEMP              0 ****  ****    0 ROOT
