@<TRIPOS>MOLECULE
A1A
   17    16     1     0     0
SMALL
No Charge or Current Charge


@<TRIPOS>ATOM
      1 N1          -5.6810    -4.6450    15.9430 nu         1 A1A      -0.664900
      2 N           -6.3670    -4.2080    18.0990 n2         1 A1A      -0.793100
      3 O           -4.5970    -3.6470    15.9250 oh         1 A1A      -0.411300
      4 C3          -6.1000    -5.0720    17.1980 c2         1 A1A       0.583200
      5 C1          -6.3170    -6.5730    17.3620 c3         1 A1A      -0.157000
      6 C2          -5.5200    -7.1500    18.5590 c3         1 A1A      -0.087100
      7 C           -7.8200    -6.9310    17.4590 c3         1 A1A      -0.087100
      8 H1          -5.4680    -5.4120    15.2950 hn         1 A1A       0.477000
      9 H2          -6.6980    -4.7120    18.9320 hn         1 A1A       0.383400
     10 H3          -4.8560    -2.9500    15.2700 ho         1 A1A       0.455000
     11 H4          -5.9350    -7.0860    16.4700 hc         1 A1A       0.054700
     12 H5          -5.6250    -8.2410    18.6040 hc         1 A1A       0.041033
     13 H6          -4.4530    -6.9160    18.4600 hc         1 A1A       0.041033
     14 H7          -5.8760    -6.7340    19.5100 hc         1 A1A       0.041033
     15 H8          -7.9580    -8.0190    17.5030 hc         1 A1A       0.041033
     16 H9          -8.2740    -6.4930    18.3560 hc         1 A1A       0.041033
     17 H10         -8.3630    -6.5570    16.5820 hc         1 A1A       0.041033
@<TRIPOS>BOND
     1     1     3 1   
     2     1     4 1   
     3     1     8 1   
     4     2     4 2   
     5     2     9 1   
     6     3    10 1   
     7     4     5 1   
     8     5     6 1   
     9     5     7 1   
    10     5    11 1   
    11     6    12 1   
    12     6    13 1   
    13     6    14 1   
    14     7    15 1   
    15     7    16 1   
    16     7    17 1   
@<TRIPOS>SUBSTRUCTURE
     1 A1A         1 TEMP              0 ****  ****    0 ROOT
