@<TRIPOS>MOLECULE
A1A
   70    75     1     0     0
SMALL
No Charge or Current Charge


@<TRIPOS>ATOM
      1 N1          -2.0250   -30.9520    27.5220 n          1 A1A      -0.371800
      2 C4          -1.5000   -26.7510    28.1150 ca         1 A1A      -0.211000
      3 C5          -1.6700   -28.1120    27.7960 ca         1 A1A      -0.023300
      4 C6          -2.9670   -28.6160    27.5350 ca         1 A1A      -0.125300
      5 C7          -0.4510   -29.0340    27.7550 c6         1 A1A      -0.014100
      6 C8          -0.7320   -30.3930    27.0900 cx         1 A1A       0.053400
      7 C10         -2.2200   -32.2010    28.1720 c          1 A1A       0.623700
      8 C13          0.9930   -33.0010    30.1280 ca         1 A1A      -0.117500
      9 C15          0.0980   -35.0620    29.2050 ca         1 A1A      -0.117500
     10 C17         -3.6330   -30.2810    25.7040 ca         1 A1A      -0.138300
     11 C20         -4.4590   -31.3690    25.3580 ca         1 A1A      -0.056500
     12 C21         -4.8710   -31.5590    24.0270 ca         1 A1A      -0.180500
     13 C22         -4.4600   -30.6570    23.0240 ca         1 A1A       0.148100
     14 C24         -3.2300   -29.3790    24.6960 ca         1 A1A      -0.056500
     15 C26         -5.8540   -31.7150    19.7380 cy         1 A1A      -0.103700
     16 C28         -4.6250   -31.9440    18.7970 cy         1 A1A       0.152300
     17 C1          -4.0740   -27.7460    27.5930 ca         1 A1A      -0.062000
     18 C11         -1.0500   -32.9420    28.7810 ca         1 A1A      -0.133600
     19 C12         -0.0720   -32.2820    29.5580 ca         1 A1A      -0.076500
     20 C14          1.0820   -34.3900    29.9470 ca         1 A1A      -0.096000
     21 C16         -0.9670   -34.3440    28.6340 ca         1 A1A      -0.076500
     22 C18          0.4580   -31.2390    26.6630 cx         1 A1A      -0.120900
     23 C19         -0.3450   -30.5120    25.6260 cx         1 A1A      -0.120900
     24 C2          -3.8930   -26.3890    27.9090 ca         1 A1A      -0.144000
     25 C23         -3.6420   -29.5710    23.3660 ca         1 A1A      -0.180500
     26 C25         -5.6600   -31.8760    21.2490 c3         1 A1A       0.175600
     27 C27         -6.4730   -32.9090    18.9360 cy         1 A1A       0.152300
     28 C3          -2.6090   -25.8940    28.1690 ca         1 A1A       0.144100
     29 C30         -4.4130   -32.4690    15.6400 c3         1 A1A      -0.076400
     30 C31         -4.0640   -33.3210    14.4040 c3         1 A1A      -0.090100
     31 C9          -3.1940   -30.0960    27.1700 c6         1 A1A       0.216300
     32 N2          -5.6540   -32.3810    17.8060 nq         1 A1A      -0.711600
     33 O1          -2.4400   -24.5780    28.4770 oh         1 A1A      -0.532100
     34 O2          -4.8310   -30.7930    21.7020 os         1 A1A      -0.346100
     35 O3          -3.3450   -32.6740    28.2880 o          1 A1A      -0.600100
     36 H1          -0.5030   -26.3690    28.3200 ha         1 A1A       0.111000
     37 H2           0.3760   -28.5280    27.2380 hc         1 A1A       0.057700
     38 H3          -0.1010   -29.1970    28.7810 hc         1 A1A       0.057700
     39 H4           1.7430   -32.4810    30.7200 ha         1 A1A       0.115000
     40 H5           0.1580   -36.1400    29.0730 ha         1 A1A       0.115000
     41 H6          -4.7850   -32.0720    26.1210 ha         1 A1A       0.125000
     42 H7          -5.5070   -32.4090    23.7970 ha         1 A1A       0.122000
     43 H8          -2.5890   -28.5330    24.9330 ha         1 A1A       0.125000
     44 H9          -3.9420   -32.7330    19.1390 h1         1 A1A       0.049450
     45 H10         -4.0620   -31.0380    18.5430 h1         1 A1A       0.049450
     46 H11         -5.0740   -28.1210    27.3880 ha         1 A1A       0.122000
     47 H12         -0.1440   -31.2140    29.7380 ha         1 A1A       0.121000
     48 H13          1.9050   -34.9460    30.3900 ha         1 A1A       0.114000
     49 H14         -1.7250   -34.8760    28.0620 ha         1 A1A       0.121000
     50 H15          0.3780   -32.3220    26.6580 hc         1 A1A       0.081700
     51 H16          1.4540   -30.8650    26.8890 hc         1 A1A       0.081700
     52 H17         -0.9720   -31.1170    24.9760 hc         1 A1A       0.081700
     53 H18          0.1090   -29.6520    25.1400 hc         1 A1A       0.081700
     54 H19         -4.7510   -25.7230    27.9510 ha         1 A1A       0.132000
     55 H20         -3.3230   -28.8740    22.5960 ha         1 A1A       0.122000
     56 H21         -6.6440   -31.8520    21.7350 h1         1 A1A       0.037200
     57 H22         -5.1840   -32.8460    21.4450 h1         1 A1A       0.037200
     58 H23         -7.5600   -32.8650    18.8070 h1         1 A1A       0.049450
     59 H24         -6.1730   -33.8980    19.3070 h1         1 A1A       0.049450
     60 H25         -6.2280   -33.5350    16.1570 h1         1 A1A       0.029200
     61 H26         -4.7800   -34.1180    17.0100 h1         1 A1A       0.029200
     62 H27         -3.4830   -32.1560    16.1290 hc         1 A1A       0.046200
     63 H28         -4.9280   -31.5580    15.3130 hc         1 A1A       0.046200
     64 H29         -3.4340   -32.7510    13.7120 hc         1 A1A       0.032367
     65 H30         -3.5200   -34.2260    14.6990 hc         1 A1A       0.032367
     66 H31         -4.9750   -33.6220    13.8720 hc         1 A1A       0.032367
     67 H32         -4.0440   -30.4110    27.7920 h1         1 A1A       0.093700
     68 H33         -1.4840   -24.4170    28.6260 ho         1 A1A       0.464000
     69 H34         -6.3680   -30.7640    19.5580 hc         1 A1A       0.085700
     70 C29         -5.3020   -33.2180    16.6560 c3         1 A1A       0.164800
@<TRIPOS>BOND
     1     1     6 1   
     2     1     7 1   
     3     1    31 1   
     4     2     3 ar  
     5     2    28 ar  
     6     2    36 1   
     7     3     4 ar  
     8     3     5 1   
     9     4    17 ar  
    10     4    31 1   
    11     5     6 1   
    12     5    37 1   
    13     5    38 1   
    14     6    22 1   
    15     6    23 1   
    16     7    18 1   
    17     7    35 2   
    18     8    19 ar  
    19     8    20 ar  
    20     8    39 1   
    21     9    20 ar  
    22     9    21 ar  
    23     9    40 1   
    24    10    11 ar  
    25    10    14 ar  
    26    10    31 1   
    27    11    12 ar  
    28    11    41 1   
    29    12    13 ar  
    30    12    42 1   
    31    13    25 ar  
    32    13    34 1   
    33    14    25 ar  
    34    14    43 1   
    35    15    16 1   
    36    15    26 1   
    37    15    27 1   
    38    15    69 1   
    39    16    32 1   
    40    16    44 1   
    41    16    45 1   
    42    17    24 ar  
    43    17    46 1   
    44    18    19 ar  
    45    18    21 ar  
    46    19    47 1   
    47    20    48 1   
    48    21    49 1   
    49    22    23 1   
    50    22    50 1   
    51    22    51 1   
    52    23    52 1   
    53    23    53 1   
    54    24    28 ar  
    55    24    54 1   
    56    25    55 1   
    57    26    34 1   
    58    26    56 1   
    59    26    57 1   
    60    27    32 1   
    61    27    58 1   
    62    27    59 1   
    63    28    33 1   
    64    29    30 1   
    65    29    62 1   
    66    29    63 1   
    67    29    70 1   
    68    30    64 1   
    69    30    65 1   
    70    30    66 1   
    71    31    67 1   
    72    32    70 1   
    73    33    68 1   
    74    60    70 1   
    75    61    70 1   
@<TRIPOS>SUBSTRUCTURE
     1 A1A         1 TEMP              0 ****  ****    0 ROOT
