@<TRIPOS>MOLECULE
A1A
   17    16     1     0     0
SMALL
abcg2


@<TRIPOS>ATOM
      1 N1          -5.4540    -4.7960    15.9890 nu         1 A1A      -0.664900
      2 N           -6.2350    -4.2220    18.0830 n2         1 A1A      -0.793100
      3 O           -4.8800    -3.5540    15.8520 oh         1 A1A      -0.411300
      4 C3          -5.9840    -5.1160    17.2120 c2         1 A1A       0.583200
      5 C1          -6.2930    -6.5970    17.3380 c3         1 A1A      -0.157000
      6 C2          -5.5620    -7.1980    18.5370 c3         1 A1A      -0.087100
      7 C           -7.8000    -6.8230    17.4310 c3         1 A1A      -0.087100
      8 H1          -4.8900    -5.5040    15.5400 hn         1 A1A       0.477000
      9 H2          -6.6820    -4.6420    18.8910 hn         1 A1A       0.383400
     10 H3          -5.4980    -3.0470    15.3130 ho         1 A1A       0.455000
     11 H4          -5.9350    -7.1060    16.4370 hc         1 A1A       0.054700
     12 H5          -5.7510    -8.2700    18.5910 hc         1 A1A       0.041033
     13 H6          -4.4840    -7.0510    18.4660 hc         1 A1A       0.041033
     14 H7          -5.9030    -6.7550    19.4740 hc         1 A1A       0.041033
     15 H8          -8.0180    -7.8910    17.4720 hc         1 A1A       0.041033
     16 H9          -8.2160    -6.3660    18.3310 hc         1 A1A       0.041033
     17 H10         -8.3210    -6.4080    16.5680 hc         1 A1A       0.041033
@<TRIPOS>BOND
     1     1     3 1   
     2     1     4 1   
     3     1     8 1   
     4     2     4 2   
     5     2     9 1   
     6     3    10 1   
     7     4     5 1   
     8     5     6 1   
     9     5     7 1   
    10     5    11 1   
    11     6    12 1   
    12     6    13 1   
    13     6    14 1   
    14     7    15 1   
    15     7    16 1   
    16     7    17 1   
@<TRIPOS>SUBSTRUCTURE
     1 A1A         1 TEMP              0 ****  ****    0 ROOT
