@<TRIPOS>MOLECULE
A1A
   52    56     1     0     0
SMALL
No Charge or Current Charge


@<TRIPOS>ATOM
      1 CAA         47.0060    -6.5980    25.7490 ca         1 A1A      -0.296500
      2 CAF         47.6940    -6.0220    24.6380 ca         1 A1A       0.053000
      3 CAG         47.5710    -6.6320    23.3610 ca         1 A1A      -0.062000
      4 CAH         46.7770    -7.7790    23.1890 ca         1 A1A      -0.025000
      5 CAI         46.1000    -8.3350    24.2800 ca         1 A1A      -0.142000
      6 CAJ         46.2130    -7.7520    25.5490 ca         1 A1A       0.022000
      7 CAK         48.5150    -4.8710    24.7480 ca         1 A1A      -0.127000
      8 CAL         49.1870    -4.3520    23.6280 ca         1 A1A      -0.070000
      9 CAM         49.0530    -4.9660    22.3760 ca         1 A1A      -0.110000
     10 CAN         48.2460    -6.1040    22.2430 ca         1 A1A      -0.083000
     11 CAO         49.5700    -6.8720    27.2510 cc         1 A1A       0.719100
     12 CAQ         50.9500    -8.5010    26.0370 cc         1 A1A      -0.167600
     13 CAR         51.5620    -7.1800    26.2400 c          1 A1A       0.714700
     14 CAU         51.5690    -9.5120    25.3380 cf         1 A1A      -0.010200
     15 CAV         51.1690   -10.8610    24.8460 ca         1 A1A      -0.113800
     16 CAW         49.8370   -11.3300    24.9290 ca         1 A1A      -0.059000
     17 CAX         49.4880   -12.6040    24.4500 ca         1 A1A      -0.142000
     18 CAY         50.4580   -13.4340    23.8730 ca         1 A1A      -0.061000
     19 CAZ         51.7820   -12.9850    23.7740 ca         1 A1A      -0.181000
     20 CBA         52.1400   -11.7130    24.2610 ca         1 A1A       0.160100
     21 CBC         54.5200   -12.0850    24.4970 ca         1 A1A       0.095100
     22 CBD         55.7270   -11.9400    23.7930 ca         1 A1A      -0.120500
     23 CBE         56.8430   -12.7230    24.1360 ca         1 A1A      -0.097000
     24 CBF         56.7530   -13.6490    25.1900 ca         1 A1A      -0.112000
     25 CBG         55.5510   -13.7880    25.9050 ca         1 A1A      -0.097000
     26 CBH         54.4340   -13.0040    25.5620 ca         1 A1A      -0.120500
     27 NAE         48.6970    -6.1210    27.9200 nu         1 A1A      -0.827300
     28 NAS         50.7130    -6.3380    26.9410 nd         1 A1A      -0.698100
     29 OAC         46.3850    -6.8420    28.3630 o          1 A1A      -0.516500
     30 OAD         46.9290    -4.5160    27.4540 o          1 A1A      -0.516500
     31 OAT         52.6630    -6.8180    25.8590 o          1 A1A      -0.493100
     32 OBB         53.4480   -11.2940    24.1470 os         1 A1A      -0.253200
     33 SAB         47.1160    -5.9670    27.4440 sy         1 A1A       1.180600
     34 SAP         49.3670    -8.5650    26.7970 ss         1 A1A      -0.179800
     35 H1          46.6860    -8.2430    22.2100 ha         1 A1A       0.119000
     36 H2          45.4890    -9.2240    24.1440 ha         1 A1A       0.126000
     37 H3          45.6790    -8.2170    26.3770 ha         1 A1A       0.146000
     38 H4          48.6590    -4.3540    25.6880 ha         1 A1A       0.122000
     39 H5          49.8140    -3.4690    23.7330 ha         1 A1A       0.121000
     40 H6          49.5740    -4.5620    21.5110 ha         1 A1A       0.122000
     41 H7          48.1470    -6.5760    21.2690 ha         1 A1A       0.117000
     42 H8          52.5670    -9.2190    25.0060 ha         1 A1A       0.217000
     43 H10         49.0480   -10.7140    25.3420 ha         1 A1A       0.130000
     44 H11         48.4570   -12.9450    24.5210 ha         1 A1A       0.123000
     45 H12         50.1840   -14.4190    23.4980 ha         1 A1A       0.117000
     46 H13         52.5330   -13.6240    23.3160 ha         1 A1A       0.131000
     47 H14         55.7950   -11.2220    22.9790 ha         1 A1A       0.129500
     48 H15         57.7760   -12.6130    23.5860 ha         1 A1A       0.118000
     49 H16         57.6170   -14.2550    25.4560 ha         1 A1A       0.118000
     50 H17         55.4850   -14.5000    26.7250 ha         1 A1A       0.118000
     51 H18         53.5110   -13.1100    26.1270 ha         1 A1A       0.129500
     52 H19         49.0310    -5.1770    27.9910 hn         1 A1A       0.533000
@<TRIPOS>BOND
     1     1     2 ar  
     2     1     6 ar  
     3     1    33 1   
     4     2     3 ar  
     5     2     7 ar  
     6     3     4 ar  
     7     3    10 ar  
     8     4     5 ar  
     9     4    35 1   
    10     5     6 ar  
    11     5    36 1   
    12     6    37 1   
    13     7     8 ar  
    14     7    38 1   
    15     8     9 ar  
    16     8    39 1   
    17     9    10 ar  
    18     9    40 1   
    19    10    41 1   
    20    11    27 1   
    21    11    28 2   
    22    11    34 1   
    23    12    13 1   
    24    12    14 2   
    25    12    34 1   
    26    13    28 1   
    27    13    31 2   
    28    14    15 1   
    29    14    42 1   
    30    15    16 ar  
    31    15    20 ar  
    32    16    17 ar  
    33    16    43 1   
    34    17    18 ar  
    35    17    44 1   
    36    18    19 ar  
    37    18    45 1   
    38    19    20 ar  
    39    19    46 1   
    40    20    32 1   
    41    21    22 ar  
    42    21    26 ar  
    43    21    32 1   
    44    22    23 ar  
    45    22    47 1   
    46    23    24 ar  
    47    23    48 1   
    48    24    25 ar  
    49    24    49 1   
    50    25    26 ar  
    51    25    50 1   
    52    26    51 1   
    53    27    33 1   
    54    27    52 1   
    55    29    33 2   
    56    30    33 2   
@<TRIPOS>SUBSTRUCTURE
     1 A1A         1 TEMP              0 ****  ****    0 ROOT
