@<TRIPOS>MOLECULE
A1A
   52    56     1     0     0
SMALL
abcg2


@<TRIPOS>ATOM
      1 C4          48.1360    -6.0020    25.9140 ca         1 A1A      -0.039000
      2 C14         52.1010   -11.2120    27.2900 ce         1 A1A      -0.027200
      3 C5          48.2770    -5.8890    24.5620 ca         1 A1A      -0.100000
      4 C6          48.0530    -6.9980    23.7080 ca         1 A1A       0.007000
      5 C11         47.6700    -8.2420    24.2730 ca         1 A1A      -0.071000
      6 C7          48.2090    -6.9050    22.3080 ca         1 A1A      -0.114000
      7 C8          47.9890    -7.9970    21.5110 ca         1 A1A      -0.080000
      8 C9          47.6030    -9.2310    22.0740 ca         1 A1A      -0.110000
      9 C10         47.4460    -9.3520    23.4270 ca         1 A1A      -0.083000
     10 C12         47.5330    -8.3490    25.6740 ca         1 A1A       0.039000
     11 C13         51.5320   -10.1440    27.8510 cd         1 A1A      -0.158600
     12 N1          51.4660    -7.9060    28.6670 nc         1 A1A      -0.693100
     13 N2          49.2550    -7.2900    28.7170 nu         1 A1A      -0.818300
     14 C3          47.7680    -7.2530    26.4570 ca         1 A1A      -0.312500
     15 C1          52.2960    -8.9630    28.3610 c          1 A1A       0.715700
     16 C15         51.3810   -12.3550    26.7330 ca         1 A1A      -0.102800
     17 C16         50.3330   -12.9770    27.4120 ca         1 A1A      -0.080000
     18 C17         49.6630   -14.0530    26.8510 ca         1 A1A      -0.112000
     19 C18         50.0340   -14.5250    25.5990 ca         1 A1A      -0.088000
     20 C19         51.0740   -13.9200    24.9070 ca         1 A1A      -0.118000
     21 C2          50.2240    -8.2030    28.4930 cd         1 A1A       0.714100
     22 C20         51.7420   -12.8510    25.4770 ca         1 A1A       0.124100
     23 C21         52.5740   -11.1170    24.1090 ca         1 A1A       0.131100
     24 C22         51.3490   -10.4610    24.0520 ca         1 A1A      -0.157500
     25 C23         51.2480    -9.2830    23.3220 ca         1 A1A      -0.078000
     26 C24         52.3430    -8.7610    22.6500 ca         1 A1A      -0.140000
     27 C25         53.5590    -9.4310    22.7120 ca         1 A1A      -0.078000
     28 C26         53.6810   -10.6040    23.4400 ca         1 A1A      -0.157500
     29 O2          47.2140    -8.7480    28.5400 o          1 A1A      -0.513000
     30 O3          47.0050    -6.2490    28.7740 o          1 A1A      -0.513000
     31 O4          52.7820   -12.2770    24.8010 os         1 A1A      -0.258200
     32 S1          47.6460    -7.4090    28.2050 sy         1 A1A       1.183600
     33 S2          49.8130    -9.8320    27.9670 ss         1 A1A      -0.172800
     34 H1          48.3120    -5.1480    26.5550 ha         1 A1A       0.130000
     35 H2          53.1840   -11.2050    27.2140 ha         1 A1A       0.222000
     36 H3          48.5640    -4.9410    24.1270 ha         1 A1A       0.123000
     37 H4          48.5060    -5.9590    21.8720 ha         1 A1A       0.122000
     38 H5          48.1130    -7.9170    20.4390 ha         1 A1A       0.121000
     39 H6          47.4360   -10.0840    21.4290 ha         1 A1A       0.122000
     40 H7          47.1530   -10.2980    23.8660 ha         1 A1A       0.122000
     41 H8          47.2430    -9.3000    26.1010 ha         1 A1A       0.145000
     42 H9          49.5700    -6.3620    28.9880 hn         1 A1A       0.531000
     43 H10         50.0630   -12.6410    28.4060 ha         1 A1A       0.131000
     44 H11         48.8610   -14.5300    27.3980 ha         1 A1A       0.124000
     45 H12         49.5140   -15.3640    25.1580 ha         1 A1A       0.121000
     46 H13         51.3680   -14.2750    23.9270 ha         1 A1A       0.133000
     47 H14         50.4740   -10.8460    24.5590 ha         1 A1A       0.126500
     48 H15         50.2960    -8.7720    23.2800 ha         1 A1A       0.115500
     49 H16         52.2500    -7.8450    22.0830 ha         1 A1A       0.115000
     50 H17         54.4240    -9.0400    22.1920 ha         1 A1A       0.115500
     51 H18         54.6280   -11.1260    23.4910 ha         1 A1A       0.126500
     52 O1          53.5000    -8.9340    28.4620 o          1 A1A      -0.486100
@<TRIPOS>BOND
     1     1     3 ar  
     2     1    14 ar  
     3     1    34 1   
     4     2    11 2   
     5     2    16 1   
     6     2    35 1   
     7     3     4 ar  
     8     3    36 1   
     9     4     5 ar  
    10     4     6 ar  
    11     5     9 ar  
    12     5    10 ar  
    13     6     7 ar  
    14     6    37 1   
    15     7     8 ar  
    16     7    38 1   
    17     8     9 ar  
    18     8    39 1   
    19     9    40 1   
    20    10    14 ar  
    21    10    41 1   
    22    11    15 1   
    23    11    33 1   
    24    12    15 1   
    25    12    21 2   
    26    13    21 1   
    27    13    32 1   
    28    13    42 1   
    29    14    32 1   
    30    15    52 2   
    31    16    17 ar  
    32    16    22 ar  
    33    17    18 ar  
    34    17    43 1   
    35    18    19 ar  
    36    18    44 1   
    37    19    20 ar  
    38    19    45 1   
    39    20    22 ar  
    40    20    46 1   
    41    21    33 1   
    42    22    31 1   
    43    23    24 ar  
    44    23    28 ar  
    45    23    31 1   
    46    24    25 ar  
    47    24    47 1   
    48    25    26 ar  
    49    25    48 1   
    50    26    27 ar  
    51    26    49 1   
    52    27    28 ar  
    53    27    50 1   
    54    28    51 1   
    55    29    32 2   
    56    30    32 2   
@<TRIPOS>SUBSTRUCTURE
     1 A1A         1 TEMP              0 ****  ****    0 ROOT
