@<TRIPOS>MOLECULE
A1A
   52    56     1     0     0
SMALL
No Charge or Current Charge


@<TRIPOS>ATOM
      1 C4          48.3810    -6.1930    25.5550 ca         1 A1A      -0.039000
      2 C14         51.9900   -11.3100    26.9460 ce         1 A1A      -0.027200
      3 C5          48.3980    -6.3970    24.1650 ca         1 A1A      -0.100000
      4 C6          48.0530    -7.6500    23.6270 ca         1 A1A       0.007000
      5 C11         47.6640    -8.7000    24.4880 ca         1 A1A      -0.071000
      6 C7          48.1040    -7.8660    22.2380 ca         1 A1A      -0.114000
      7 C8          47.7740    -9.1250    21.7060 ca         1 A1A      -0.080000
      8 C9          47.3880   -10.1700    22.5630 ca         1 A1A      -0.110000
      9 C10         47.3300    -9.9590    23.9510 ca         1 A1A      -0.083000
     10 C12         47.6180    -8.4880    25.8780 ca         1 A1A       0.039000
     11 C13         51.5580   -10.1400    27.5360 cd         1 A1A      -0.158600
     12 N1          51.5870    -7.8850    28.1470 nc         1 A1A      -0.693100
     13 N2          49.5270    -7.2190    28.7220 nu         1 A1A      -0.818300
     14 C3          47.9960    -7.2400    26.4190 ca         1 A1A      -0.312500
     15 C1          52.3680    -8.9260    27.7340 c          1 A1A       0.715700
     16 C15         51.1490   -12.3540    26.2920 ca         1 A1A      -0.102800
     17 C16         50.1660   -13.0270    27.0460 ca         1 A1A      -0.080000
     18 C17         49.3600   -14.0120    26.4510 ca         1 A1A      -0.112000
     19 C18         49.5320   -14.3400    25.0970 ca         1 A1A      -0.088000
     20 C19         50.5120   -13.6800    24.3380 ca         1 A1A      -0.118000
     21 C2          50.3180    -8.1710    28.2370 cd         1 A1A       0.714100
     22 C20         51.3130   -12.6850    24.9230 ca         1 A1A       0.124100
     23 C21         52.4330   -10.7130    24.0490 ca         1 A1A       0.131100
     24 C22         51.3510    -9.8270    24.2220 ca         1 A1A      -0.157500
     25 C23         51.5700    -8.4390    24.1790 ca         1 A1A      -0.078000
     26 C24         52.8600    -7.9360    23.9420 ca         1 A1A      -0.140000
     27 C25         53.9360    -8.8190    23.7470 ca         1 A1A      -0.078000
     28 C26         53.7200   -10.2070    23.8010 ca         1 A1A      -0.157500
     29 O2          47.2040    -8.0450    28.8560 o          1 A1A      -0.513000
     30 O3          47.7510    -5.5660    28.4880 o          1 A1A      -0.513000
     31 O4          52.2680   -12.0780    24.1320 os         1 A1A      -0.258200
     32 S1          47.9700    -6.9840    28.1990 sy         1 A1A       1.183600
     33 S2          49.8580    -9.8450    27.8890 ss         1 A1A      -0.172800
     34 H1          48.6650    -5.2190    25.9530 ha         1 A1A       0.130000
     35 H2          53.0520   -11.3440    26.6910 ha         1 A1A       0.222000
     36 H3          48.6970    -5.5830    23.5080 ha         1 A1A       0.123000
     37 H4          48.4050    -7.0620    21.5690 ha         1 A1A       0.122000
     38 H5          47.8180    -9.2900    20.6320 ha         1 A1A       0.121000
     39 H6          47.1350   -11.1440    22.1500 ha         1 A1A       0.122000
     40 H7          47.0330   -10.7760    24.6060 ha         1 A1A       0.122000
     41 H8          47.3020    -9.3000    26.5310 ha         1 A1A       0.145000
     42 H9          49.9710    -6.3190    28.6920 hn         1 A1A       0.531000
     43 H10         50.0320   -12.7910    28.0990 ha         1 A1A       0.131000
     44 H11         48.6040   -14.5250    27.0430 ha         1 A1A       0.124000
     45 H12         48.9100   -15.1060    24.6380 ha         1 A1A       0.121000
     46 H13         50.6490   -13.9360    23.2900 ha         1 A1A       0.133000
     47 H14         50.3500   -10.2070    24.4050 ha         1 A1A       0.126500
     48 H15         50.7440    -7.7530    24.3340 ha         1 A1A       0.115500
     49 H16         53.0270    -6.8620    23.9090 ha         1 A1A       0.115000
     50 H17         54.9350    -8.4300    23.5620 ha         1 A1A       0.115500
     51 H18         54.5520   -10.8920    23.6620 ha         1 A1A       0.126500
     52 O1          53.5700    -8.8370    27.5490 o          1 A1A      -0.486100
@<TRIPOS>BOND
     1     1     3 ar  
     2     1    14 ar  
     3     1    34 1   
     4     2    11 2   
     5     2    16 1   
     6     2    35 1   
     7     3     4 ar  
     8     3    36 1   
     9     4     5 ar  
    10     4     6 ar  
    11     5     9 ar  
    12     5    10 ar  
    13     6     7 ar  
    14     6    37 1   
    15     7     8 ar  
    16     7    38 1   
    17     8     9 ar  
    18     8    39 1   
    19     9    40 1   
    20    10    14 ar  
    21    10    41 1   
    22    11    15 1   
    23    11    33 1   
    24    12    15 1   
    25    12    21 2   
    26    13    21 1   
    27    13    32 1   
    28    13    42 1   
    29    14    32 1   
    30    15    52 2   
    31    16    17 ar  
    32    16    22 ar  
    33    17    18 ar  
    34    17    43 1   
    35    18    19 ar  
    36    18    44 1   
    37    19    20 ar  
    38    19    45 1   
    39    20    22 ar  
    40    20    46 1   
    41    21    33 1   
    42    22    31 1   
    43    23    24 ar  
    44    23    28 ar  
    45    23    31 1   
    46    24    25 ar  
    47    24    47 1   
    48    25    26 ar  
    49    25    48 1   
    50    26    27 ar  
    51    26    49 1   
    52    27    28 ar  
    53    27    50 1   
    54    28    51 1   
    55    29    32 2   
    56    30    32 2   
@<TRIPOS>SUBSTRUCTURE
     1 A1A         1 TEMP              0 ****  ****    0 ROOT
