@<TRIPOS>MOLECULE
A1A
   52    56     1     0     0
SMALL
abcg2


@<TRIPOS>ATOM
      1 CAA         47.1740    -6.5780    24.8940 ca         1 A1A      -0.296500
      2 CAF         47.6000    -5.4520    24.1280 ca         1 A1A       0.053000
      3 CAG         47.7140    -5.6450    22.7230 ca         1 A1A      -0.062000
      4 CAH         47.3890    -6.8960    22.1500 ca         1 A1A      -0.025000
      5 CAI         46.9710    -7.9410    22.9230 ca         1 A1A      -0.142000
      6 CAJ         46.8660    -7.7810    24.3140 ca         1 A1A       0.022000
      7 CAK         47.9280    -4.1800    24.6530 ca         1 A1A      -0.127000
      8 CAL         48.3520    -3.1720    23.8290 ca         1 A1A      -0.070000
      9 CAM         48.4670    -3.3660    22.4410 ca         1 A1A      -0.110000
     10 CAN         48.1490    -4.5810    21.9020 ca         1 A1A      -0.083000
     11 CAO         49.6020    -7.0610    27.1670 cc         1 A1A       0.719100
     12 CAQ         51.0940    -8.9600    26.8700 cc         1 A1A      -0.167600
     13 CAR         51.7160    -7.6850    27.3400 c          1 A1A       0.714700
     14 CAU         51.8170   -10.0470    26.5740 cf         1 A1A      -0.010200
     15 CAV         51.3460   -11.3480    26.1240 ca         1 A1A      -0.113800
     16 CAW         50.1120   -11.8770    26.5110 ca         1 A1A      -0.059000
     17 CAX         49.7020   -13.1300    26.0920 ca         1 A1A      -0.142000
     18 CAY         50.5310   -13.8800    25.2680 ca         1 A1A      -0.061000
     19 CAZ         51.7650   -13.3870    24.8730 ca         1 A1A      -0.181000
     20 CBA         52.1720   -12.1310    25.3020 ca         1 A1A       0.160100
     21 CBC         54.3930   -12.3880    24.5550 ca         1 A1A       0.095100
     22 CBD         54.8610   -12.3300    23.2530 ca         1 A1A      -0.120500
     23 CBE         55.9500   -13.1140    22.8900 ca         1 A1A      -0.097000
     24 CBF         56.5540   -13.9500    23.8190 ca         1 A1A      -0.112000
     25 CBG         56.0720   -13.9950    25.1210 ca         1 A1A      -0.097000
     26 CBH         54.9910   -13.2120    25.4980 ca         1 A1A      -0.120500
     27 NAE         48.5610    -6.2010    27.2100 nu         1 A1A      -0.827300
     28 NAS         50.7910    -6.6680    27.4620 nd         1 A1A      -0.698100
     29 OAC         46.6170    -7.7970    27.1420 o          1 A1A      -0.516500
     30 OAD         46.2480    -5.3120    27.0320 o          1 A1A      -0.516500
     31 OAT         52.8950    -7.5550    27.5710 o          1 A1A      -0.493100
     32 OBB         53.3470   -11.5710    24.9150 os         1 A1A      -0.253200
     33 SAB         46.9930    -6.4890    26.6490 sy         1 A1A       1.180600
     34 SAP         49.3610    -8.7430    26.7160 ss         1 A1A      -0.179800
     35 H1          47.4790    -7.0130    21.0770 ha         1 A1A       0.119000
     36 H2          46.7220    -8.8950    22.4790 ha         1 A1A       0.126000
     37 H3          46.5410    -8.6210    24.9120 ha         1 A1A       0.146000
     38 H4          47.8370    -3.9650    25.7060 ha         1 A1A       0.122000
     39 H5          48.5970    -2.2080    24.2560 ha         1 A1A       0.121000
     40 H6          48.8020    -2.5550    21.8080 ha         1 A1A       0.122000
     41 H7          48.2270    -4.7480    20.8350 ha         1 A1A       0.117000
     42 H8          52.8890    -9.9240    26.6830 ha         1 A1A       0.217000
     43 H10         49.4800   -11.3280    27.1970 ha         1 A1A       0.130000
     44 H11         48.7490   -13.5250    26.4160 ha         1 A1A       0.123000
     45 H12         50.2200   -14.8590    24.9280 ha         1 A1A       0.117000
     46 H13         52.3990   -13.9800    24.2260 ha         1 A1A       0.131000
     47 H14         54.3820   -11.6800    22.5320 ha         1 A1A       0.129500
     48 H15         56.3200   -13.0730    21.8740 ha         1 A1A       0.118000
     49 H16         57.3980   -14.5620    23.5300 ha         1 A1A       0.118000
     50 H17         56.5430   -14.6400    25.8520 ha         1 A1A       0.118000
     51 H18         54.6200   -13.2400    26.5150 ha         1 A1A       0.129500
     52 H19         48.7770    -5.2550    27.5110 hn         1 A1A       0.533000
@<TRIPOS>BOND
     1     1     2 ar  
     2     1     6 ar  
     3     1    33 1   
     4     2     3 ar  
     5     2     7 ar  
     6     3     4 ar  
     7     3    10 ar  
     8     4     5 ar  
     9     4    35 1   
    10     5     6 ar  
    11     5    36 1   
    12     6    37 1   
    13     7     8 ar  
    14     7    38 1   
    15     8     9 ar  
    16     8    39 1   
    17     9    10 ar  
    18     9    40 1   
    19    10    41 1   
    20    11    27 1   
    21    11    28 2   
    22    11    34 1   
    23    12    13 1   
    24    12    14 2   
    25    12    34 1   
    26    13    28 1   
    27    13    31 2   
    28    14    15 1   
    29    14    42 1   
    30    15    16 ar  
    31    15    20 ar  
    32    16    17 ar  
    33    16    43 1   
    34    17    18 ar  
    35    17    44 1   
    36    18    19 ar  
    37    18    45 1   
    38    19    20 ar  
    39    19    46 1   
    40    20    32 1   
    41    21    22 ar  
    42    21    26 ar  
    43    21    32 1   
    44    22    23 ar  
    45    22    47 1   
    46    23    24 ar  
    47    23    48 1   
    48    24    25 ar  
    49    24    49 1   
    50    25    26 ar  
    51    25    50 1   
    52    26    51 1   
    53    27    33 1   
    54    27    52 1   
    55    29    33 2   
    56    30    33 2   
@<TRIPOS>SUBSTRUCTURE
     1 A1A         1 TEMP              0 ****  ****    0 ROOT
