@<TRIPOS>MOLECULE
A1A
   33    35     1     0     0
SMALL
No Charge or Current Charge


@<TRIPOS>ATOM
      1 C12         25.7270     6.0320    15.6090 ca         1 A1A      -0.338500
      2 C13         25.4090     5.3700    16.8090 ca         1 A1A       0.234100
      3 C15         25.2490     6.1100    17.9990 ca         1 A1A      -0.003000
      4 C17         25.4030     7.5060    17.9880 ca         1 A1A      -0.008000
      5 C19         25.8740     7.4350    15.5990 ca         1 A1A       0.033000
      6 O20         26.9190     4.0470    14.2790 o          1 A1A      -0.519000
      7 C23         21.5690     5.8080    12.1310 ca         1 A1A      -0.048000
      8 C02         19.0370     6.8650    14.3760 cc         1 A1A       0.413200
      9 C04         20.7600     6.1190    13.2330 ca         1 A1A       0.108400
     10 C05         21.1880     5.8070    14.5060 ca         1 A1A      -0.184000
     11 C07         22.4240     5.1870    14.7450 ca         1 A1A      -0.084000
     12 C08         23.2630     4.8800    13.6530 ca         1 A1A       0.258000
     13 C18         25.7130     8.1660    16.7880 ca         1 A1A      -0.160000
     14 C21         22.8170     5.1870    12.3350 ca         1 A1A       0.147000
     15 N03         19.5170     6.7310    13.1320 nd         1 A1A      -0.531100
     16 N09         24.4990     4.2760    13.8990 nu         1 A1A      -0.883100
     17 O11         25.9970     6.0360    12.9480 o          1 A1A      -0.519000
     18 O14         25.2200     4.0180    16.8270 oh         1 A1A      -0.538100
     19 S06         20.0250     6.2770    15.7340 ss         1 A1A       0.022800
     20 S10         25.9370     5.1160    14.0870 sy         1 A1A       1.172600
     21 Cl16        24.8410     5.3020    19.5150 cl         1 A1A      -0.196000
     22 Cl22        23.7820     4.7680    10.9140 cl         1 A1A      -0.151000
     23 H1          25.2780     8.0750    18.9070 ha         1 A1A       0.134000
     24 H2          26.1160     7.9670    14.6790 ha         1 A1A       0.153000
     25 H3          21.2320     6.0390    11.1250 ha         1 A1A       0.153000
     26 H4          17.0890     7.5330    13.7450 hc         1 A1A       0.064367
     27 H5          17.1560     6.9300    15.4110 hc         1 A1A       0.064367
     28 H6          17.8350     8.5220    15.0170 hc         1 A1A       0.064367
     29 H7          22.7290     4.9570    15.7620 ha         1 A1A       0.127000
     30 H8          25.8290     9.2480    16.7780 ha         1 A1A       0.131000
     31 H9          24.5200     3.7500    14.7670 hn         1 A1A       0.504000
     32 H10         25.0820     3.7530    17.7640 ho         1 A1A       0.501000
     33 C01         17.7050     7.4970    14.6510 c3         1 A1A      -0.121400
@<TRIPOS>BOND
     1     1     2 ar  
     2     1     5 ar  
     3     1    20 1   
     4     2     3 ar  
     5     2    18 1   
     6     3     4 ar  
     7     3    21 1   
     8     4    13 ar  
     9     4    23 1   
    10     5    13 ar  
    11     5    24 1   
    12     6    20 2   
    13     7     9 ar  
    14     7    14 ar  
    15     7    25 1   
    16     8    15 2   
    17     8    19 1   
    18     8    33 1   
    19     9    10 ar  
    20     9    15 1   
    21    10    11 ar  
    22    10    19 1   
    23    11    12 ar  
    24    11    29 1   
    25    12    14 ar  
    26    12    16 1   
    27    13    30 1   
    28    14    22 1   
    29    16    20 1   
    30    16    31 1   
    31    17    20 2   
    32    18    32 1   
    33    26    33 1   
    34    27    33 1   
    35    28    33 1   
@<TRIPOS>SUBSTRUCTURE
     1 A1A         1 TEMP              0 ****  ****    0 ROOT
