@<TRIPOS>MOLECULE
A1A
   33    35     1     0     0
SMALL
abcg2


@<TRIPOS>ATOM
      1 N11         20.0730     6.1550    15.1140 nb         1 A1A      -0.662000
      2 C13         21.4880     6.0170    13.1830 ca         1 A1A      -0.138000
      3 C14         21.7270     6.3080    11.8260 ca         1 A1A       0.209000
      4 C16         22.8630     5.9170    11.1890 ca         1 A1A      -0.156000
      5 O18         26.4380     5.9460    13.3740 o          1 A1A      -0.523500
      6 C19         25.4190     7.4730    15.5410 ca         1 A1A       0.037000
      7 C20         24.9700     8.3050    16.5490 ca         1 A1A       0.064000
      8 C22         24.5940     7.7900    17.7790 ca         1 A1A      -0.001000
      9 C23         24.6640     6.4260    17.9890 ca         1 A1A       0.001000
     10 C02         25.1080     5.5500    16.9960 ca         1 A1A       0.239100
     11 C03         25.4850     6.1070    15.7720 ca         1 A1A      -0.326500
     12 C07         23.6680     4.9120    13.2430 ca         1 A1A       0.227000
     13 C08         22.4740     5.3040    13.9080 ca         1 A1A       0.005000
     14 C09         22.1830     5.0260    15.2600 ca         1 A1A      -0.168000
     15 C10         21.0070     5.4640    15.8010 ca         1 A1A       0.345900
     16 C12         20.3070     6.4120    13.8570 ca         1 A1A       0.385900
     17 C17         23.8350     5.2060    11.9140 ca         1 A1A      -0.027000
     18 F15         20.7930     6.9880    11.1570 f          1 A1A      -0.166000
     19 N06         24.7020     4.2290    13.9280 nu         1 A1A      -0.905100
     20 S04         26.0390     5.0580    14.4470 sy         1 A1A       1.180600
     21 CL21        24.8770    10.0070    16.2770 cl         1 A1A      -0.173000
     22 CL24        24.1850     5.7700    19.5130 cl         1 A1A      -0.186000
     23 H161        23.0160     6.1420    10.1430 ha         1 A1A       0.144000
     24 H191        25.7110     7.8810    14.5850 ha         1 A1A       0.166000
     25 H221        24.2450     8.4400    18.5690 ha         1 A1A       0.149000
     26 H091        22.8610     4.4550    15.8770 ha         1 A1A       0.117000
     27 H101        20.7790     5.2580    16.8400 h4         1 A1A       0.022100
     28 H121        19.5400     6.9600    13.3210 h4         1 A1A       0.035100
     29 H171        24.7310     4.8810    11.4050 ha         1 A1A       0.145000
     30 H061        24.4530     3.4320    14.5040 hn         1 A1A       0.509000
     31 H1          24.8240     3.9450    18.0040 ho         1 A1A       0.500000
     32 O01         25.1510     4.2290    17.1380 oh         1 A1A      -0.527100
     33 O05         26.9680     4.0720    14.9560 o          1 A1A      -0.523500
@<TRIPOS>BOND
     1     1    15 ar  
     2     1    16 ar  
     3     2     3 ar  
     4     2    13 ar  
     5     2    16 ar  
     6     3     4 ar  
     7     3    18 1   
     8     4    17 ar  
     9     4    23 1   
    10     5    20 2   
    11     6     7 ar  
    12     6    11 ar  
    13     6    24 1   
    14     7     8 ar  
    15     7    21 1   
    16     8     9 ar  
    17     8    25 1   
    18     9    10 ar  
    19     9    22 1   
    20    10    11 ar  
    21    10    32 1   
    22    11    20 1   
    23    12    13 ar  
    24    12    17 ar  
    25    12    19 1   
    26    13    14 ar  
    27    14    15 ar  
    28    14    26 1   
    29    15    27 1   
    30    16    28 1   
    31    17    29 1   
    32    19    20 1   
    33    19    30 1   
    34    20    33 2   
    35    31    32 1   
@<TRIPOS>SUBSTRUCTURE
     1 A1A         1 TEMP              0 ****  ****    0 ROOT
