@<TRIPOS>MOLECULE
A1A
   47    50     1     0     0
SMALL
No Charge or Current Charge


@<TRIPOS>ATOM
      1 N3          -6.0850     0.4920    -5.7360 ns         1 A1A      -0.514900
      2 C4          -7.3450     0.9230    -5.3800 c          1 A1A       0.567000
      3 C5          -7.4660     2.0910    -4.3880 c6         1 A1A      -0.154400
      4 C6          -6.1470     2.4630    -3.6530 c6         1 A1A      -0.136700
      5 C7          -6.2250     3.7710    -2.8150 c          1 A1A       0.604100
      6 C10         -5.9230     4.8290     0.8580 c6         1 A1A      -0.090400
      7 C13         -4.7450     2.7800    -0.9910 c6         1 A1A       0.104000
      8 C15         -3.4380     3.9690     3.1480 cc         1 A1A      -0.147100
      9 C17         -4.7150     3.8630     5.0450 ca         1 A1A      -0.062200
     10 C20         -7.4160     3.4120     5.5110 ca         1 A1A       0.140000
     11 C21         -6.9340     3.4110     4.1860 ca         1 A1A      -0.107000
     12 C22         -5.5640     3.6420     3.9980 ca         1 A1A      -0.075800
     13 C1          -4.9370     2.4400    -4.6160 c6         1 A1A      -0.088400
     14 C2          -4.7990     1.0650    -5.3050 c6         1 A1A       0.116000
     15 N8          -5.7120     3.8060    -1.4930 n          1 A1A      -0.412800
     16 C9          -5.8160     5.0530    -0.6770 c6         1 A1A       0.104000
     17 C11         -5.2420     3.5320     1.3670 c6         1 A1A       0.018500
     18 C12         -4.1270     3.1000     0.3910 c6         1 A1A      -0.090400
     19 C14         -4.7620     3.7070     2.7980 cd         1 A1A      -0.141400
     20 N16         -3.4370     4.0600     4.5570 na         1 A1A      -0.220700
     21 C18         -5.1650     3.8700     6.3720 ca         1 A1A      -0.100000
     22 C19         -6.5410     3.6400     6.6000 ca         1 A1A      -0.128000
     23 O24         -6.7350     4.7690    -3.3090 o          1 A1A      -0.604100
     24 O25         -8.3310     0.3500    -5.8120 o          1 A1A      -0.569000
     25 H1          -6.0620    -0.2950    -6.3740 hn         1 A1A       0.314500
     26 H2          -7.7840     2.9470    -4.9950 hc         1 A1A       0.088700
     27 H3          -8.2990     1.8970    -3.7010 hc         1 A1A       0.088700
     28 H4          -5.9520     1.6460    -2.9500 hc         1 A1A       0.061700
     29 H5          -5.4970     5.7060     1.3650 hc         1 A1A       0.053200
     30 H6          -6.9820     4.8040     1.1470 hc         1 A1A       0.053200
     31 H7          -5.2740     1.8210    -0.9010 h1         1 A1A       0.050700
     32 H8          -3.9360     2.6440    -1.7220 h1         1 A1A       0.050700
     33 H9          -2.5430     4.0940     2.5460 h4         1 A1A       0.212000
     34 H10         -7.6010     3.2370     3.3470 ha         1 A1A       0.133000
     35 H11         -4.0060     2.6840    -4.0860 hc         1 A1A       0.061200
     36 H12         -5.0690     3.2170    -5.3810 hc         1 A1A       0.061200
     37 H13         -4.3400     0.3560    -4.6010 h1         1 A1A       0.038700
     38 H14         -4.1320     1.1470    -6.1740 h1         1 A1A       0.038700
     39 H15         -4.9180     5.6550    -0.8790 h1         1 A1A       0.050700
     40 H16         -6.6760     5.6560    -0.9990 h1         1 A1A       0.050700
     41 H17         -5.9980     2.7340     1.3610 hc         1 A1A       0.057700
     42 H18         -3.6030     2.2140     0.7720 hc         1 A1A       0.053200
     43 H19         -3.3770     3.8960     0.2860 hc         1 A1A       0.053200
     44 H20         -2.6190     4.2450     5.1310 hn         1 A1A       0.354000
     45 H21         -4.4810     4.0480     7.1990 ha         1 A1A       0.119000
     46 H22         -6.9310     3.6380     7.6150 ha         1 A1A       0.131000
     47 F23         -8.7290     3.1950     5.7440 f          1 A1A      -0.185000
@<TRIPOS>BOND
     1     1     2 1   
     2     1    14 1   
     3     1    25 1   
     4     2     3 1   
     5     2    24 2   
     6     3     4 1   
     7     3    26 1   
     8     3    27 1   
     9     4     5 1   
    10     4    13 1   
    11     4    28 1   
    12     5    15 1   
    13     5    23 2   
    14     6    16 1   
    15     6    17 1   
    16     6    29 1   
    17     6    30 1   
    18     7    15 1   
    19     7    18 1   
    20     7    31 1   
    21     7    32 1   
    22     8    19 2   
    23     8    20 1   
    24     8    33 1   
    25     9    12 ar  
    26     9    20 1   
    27     9    21 ar  
    28    10    11 ar  
    29    10    22 ar  
    30    10    47 1   
    31    11    12 ar  
    32    11    34 1   
    33    12    19 1   
    34    13    14 1   
    35    13    35 1   
    36    13    36 1   
    37    14    37 1   
    38    14    38 1   
    39    15    16 1   
    40    16    39 1   
    41    16    40 1   
    42    17    18 1   
    43    17    19 1   
    44    17    41 1   
    45    18    42 1   
    46    18    43 1   
    47    20    44 1   
    48    21    22 ar  
    49    21    45 1   
    50    22    46 1   
@<TRIPOS>SUBSTRUCTURE
     1 A1A         1 TEMP              0 ****  ****    0 ROOT
