@<TRIPOS>MOLECULE
A1A
   39    41     1     0     0
SMALL
No Charge or Current Charge


@<TRIPOS>ATOM
      1 C12         25.1620     5.8360    16.7420 ca         1 A1A       0.253100
      2 O13         25.5440     4.6420    17.2780 oh         1 A1A      -0.520100
      3 C14         24.6770     6.8380    17.6110 ca         1 A1A      -0.008000
      4 C16         24.2510     8.0750    17.1030 ca         1 A1A      -0.009000
      5 C17         24.3060     8.3180    15.7230 ca         1 A1A      -0.166000
      6 C20         23.4540     5.2290    11.5820 ca         1 A1A      -0.151000
      7 C21         22.4190     5.9620    10.9660 ca         1 A1A      -0.072000
      8 C01         17.9680     7.0080    14.9760 c3         1 A1A      -0.178100
      9 C02         18.9520     6.8870    13.8060 c          1 A1A       0.615100
     10 C04         20.4840     5.5770    15.3340 c5         1 A1A       0.101000
     11 C05         21.8930     4.8970    15.1100 c5         1 A1A      -0.037100
     12 C06         22.2130     5.2330    13.6610 ca         1 A1A      -0.129300
     13 C07         23.3660     4.8700    12.9400 ca         1 A1A       0.305000
     14 C11         25.2210     6.0810    15.3530 ca         1 A1A      -0.307500
     15 C18         24.7880     7.3290    14.8520 ca         1 A1A       0.023000
     16 C22         21.2790     6.3320    11.7040 ca         1 A1A      -0.116000
     17 C23         21.1980     5.9480    13.0560 ca         1 A1A      -0.012000
     18 N03         20.1660     6.1740    14.0060 n          1 A1A      -0.226400
     19 N08         24.3950     4.1580    13.5380 nu         1 A1A      -0.913100
     20 O10         26.3410     5.5460    12.9840 o          1 A1A      -0.534500
     21 O19         26.4800     3.7360    14.7810 o          1 A1A      -0.534500
     22 O24         18.6670     7.4050    12.7330 o          1 A1A      -0.579100
     23 S09         25.7860     4.8630    14.1550 sy         1 A1A       1.172600
     24 Cl15        24.5840     6.5520    19.3510 cl         1 A1A      -0.197000
     25 H1          25.4170     4.7020    18.2490 ho         1 A1A       0.497000
     26 H161        23.8750     8.8420    17.7780 ha         1 A1A       0.132000
     27 H171        23.9720     9.2740    15.3260 ha         1 A1A       0.129000
     28 H201        24.3300     4.9530    11.0020 ha         1 A1A       0.119000
     29 H211        22.5010     6.2420     9.9180 ha         1 A1A       0.120000
     30 H013        17.0690     7.5730    14.7090 hc         1 A1A       0.063367
     31 H011        17.7130     6.0070    15.3420 hc         1 A1A       0.063367
     32 H012        18.4780     7.4590    15.8350 hc         1 A1A       0.063367
     33 H041        20.5410     6.3490    16.1120 h1         1 A1A       0.049700
     34 H042        19.7310     4.8360    15.6310 h1         1 A1A       0.049700
     35 H051        22.6320     5.2960    15.8080 hc         1 A1A       0.065200
     36 H052        21.8450     3.8150    15.2740 hc         1 A1A       0.065200
     37 H181        24.8130     7.5360    13.7820 ha         1 A1A       0.151000
     38 H221        20.4900     6.8940    11.2150 ha         1 A1A       0.151000
     39 H081        24.8120     3.4820    12.9150 hn         1 A1A       0.503000
@<TRIPOS>BOND
     1     1     2 1   
     2     1     3 ar  
     3     1    14 ar  
     4     2    25 1   
     5     3     4 ar  
     6     3    24 1   
     7     4     5 ar  
     8     4    26 1   
     9     5    15 ar  
    10     5    27 1   
    11     6     7 ar  
    12     6    13 ar  
    13     6    28 1   
    14     7    16 ar  
    15     7    29 1   
    16     8     9 1   
    17     8    30 1   
    18     8    31 1   
    19     8    32 1   
    20     9    18 1   
    21     9    22 2   
    22    10    11 1   
    23    10    18 1   
    24    10    33 1   
    25    10    34 1   
    26    11    12 1   
    27    11    35 1   
    28    11    36 1   
    29    12    13 ar  
    30    12    17 ar  
    31    13    19 1   
    32    14    15 ar  
    33    14    23 1   
    34    15    37 1   
    35    16    17 ar  
    36    16    38 1   
    37    17    18 1   
    38    19    23 1   
    39    19    39 1   
    40    20    23 2   
    41    21    23 2   
@<TRIPOS>SUBSTRUCTURE
     1 A1A         1 TEMP              0 ****  ****    0 ROOT
