@<TRIPOS>MOLECULE
A1A
   33    35     1     0     0
SMALL
No Charge or Current Charge


@<TRIPOS>ATOM
      1 N11         19.4870     4.6290    14.7600 nb         1 A1A      -0.662000
      2 C13         21.1850     5.7360    13.4230 ca         1 A1A      -0.138000
      3 C14         21.5100     6.7260    12.4790 ca         1 A1A       0.209000
      4 C16         22.8340     6.8850    12.0540 ca         1 A1A      -0.156000
      5 O18         26.8040     5.1250    13.3810 o          1 A1A      -0.523500
      6 C19         26.3160     7.3980    15.2730 ca         1 A1A       0.037000
      7 C20         26.0740     8.5310    16.0690 ca         1 A1A       0.064000
      8 C22         25.2890     8.4240    17.2270 ca         1 A1A      -0.001000
      9 C23         24.7410     7.1830    17.5900 ca         1 A1A       0.001000
     10 C02         24.9790     6.0390    16.7960 ca         1 A1A       0.239100
     11 C03         25.7730     6.1450    15.6370 ca         1 A1A      -0.326500
     12 C07         23.5480     5.0640    13.5320 ca         1 A1A       0.227000
     13 C08         22.1980     4.9010    13.9500 ca         1 A1A       0.005000
     14 C09         21.8010     3.9280    14.8950 ca         1 A1A      -0.168000
     15 C10         20.4500     3.8300    15.2660 ca         1 A1A       0.345900
     16 C12         19.8550     5.5640    13.8550 ca         1 A1A       0.385900
     17 C17         23.8450     6.0590    12.5750 ca         1 A1A      -0.027000
     18 F15         20.5520     7.5310    11.9660 f          1 A1A      -0.166000
     19 N06         24.5630     4.2540    14.0610 nu         1 A1A      -0.905100
     20 S04         26.0820     4.7280    14.5910 sy         1 A1A       1.180600
     21 Cl21        26.7540    10.0880    15.6100 cl         1 A1A      -0.173000
     22 Cl24        23.7450     7.0770    19.0430 cl         1 A1A      -0.186000
     23 H161        23.0770     7.6470    11.3180 ha         1 A1A       0.144000
     24 H191        26.9270     7.5070    14.3780 ha         1 A1A       0.166000
     25 H221        25.1020     9.3030    17.8390 ha         1 A1A       0.149000
     26 H091        22.5080     3.2430    15.3510 ha         1 A1A       0.117000
     27 H101        20.1290     3.0850    15.9920 h4         1 A1A       0.022100
     28 H121        19.0520     6.1910    13.4680 h4         1 A1A       0.035100
     29 H171        24.8610     6.1940    12.2180 ha         1 A1A       0.145000
     30 H061        24.2760     3.6310    14.8030 hn         1 A1A       0.509000
     31 H1          23.9420     4.9890    18.0020 ho         1 A1A       0.500000
     32 O01         24.4180     4.8480    17.1550 oh         1 A1A      -0.527100
     33 O05         26.4980     3.5830    15.4030 o          1 A1A      -0.523500
@<TRIPOS>BOND
     1     1    15 ar  
     2     1    16 ar  
     3     2     3 ar  
     4     2    13 ar  
     5     2    16 ar  
     6     3     4 ar  
     7     3    18 1   
     8     4    17 ar  
     9     4    23 1   
    10     5    20 2   
    11     6     7 ar  
    12     6    11 ar  
    13     6    24 1   
    14     7     8 ar  
    15     7    21 1   
    16     8     9 ar  
    17     8    25 1   
    18     9    10 ar  
    19     9    22 1   
    20    10    11 ar  
    21    10    32 1   
    22    11    20 1   
    23    12    13 ar  
    24    12    17 ar  
    25    12    19 1   
    26    13    14 ar  
    27    14    15 ar  
    28    14    26 1   
    29    15    27 1   
    30    16    28 1   
    31    17    29 1   
    32    19    20 1   
    33    19    30 1   
    34    20    33 2   
    35    31    32 1   
@<TRIPOS>SUBSTRUCTURE
     1 A1A         1 TEMP              0 ****  ****    0 ROOT
