@<TRIPOS>MOLECULE
A1A
   39    41     1     0     0
SMALL
abcg2


@<TRIPOS>ATOM
      1 C12         25.4330     5.5530    16.6580 ca         1 A1A       0.253100
      2 O13         25.6980     4.2740    16.4080 oh         1 A1A      -0.520100
      3 C14         25.2730     6.0780    17.9430 ca         1 A1A      -0.008000
      4 C16         24.9970     7.4180    18.1470 ca         1 A1A      -0.009000
      5 C17         24.8730     8.2730    17.0640 ca         1 A1A      -0.166000
      6 C20         23.1050     4.3850    11.6910 ca         1 A1A      -0.151000
      7 C21         21.9360     4.5680    10.9720 ca         1 A1A      -0.072000
      8 C01         17.8340     7.2140    14.3440 c3         1 A1A      -0.178100
      9 C02         18.7190     6.6700    13.2510 c          1 A1A       0.615100
     10 C04         20.4490     6.3510    15.0240 c5         1 A1A       0.101000
     11 C05         21.9570     6.1110    14.9200 c5         1 A1A      -0.037100
     12 C06         22.1060     5.5000    13.5620 ca         1 A1A      -0.129300
     13 C07         23.1920     4.8560    13.0000 ca         1 A1A       0.305000
     14 C11         25.2890     6.4320    15.5810 ca         1 A1A      -0.307500
     15 C18         25.0210     7.7790    15.7790 ca         1 A1A       0.023000
     16 C22         20.8330     5.2180    11.5190 ca         1 A1A      -0.116000
     17 C23         20.9310     5.6730    12.8280 ca         1 A1A      -0.012000
     18 N03         19.9680     6.2910    13.6370 n          1 A1A      -0.226400
     19 N08         24.3640     4.6310    13.7670 nu         1 A1A      -0.913100
     20 O10         25.1460     6.9170    13.0290 o          1 A1A      -0.534500
     21 O19         26.8100     5.2120    13.8350 o          1 A1A      -0.534500
     22 O24         18.3400     6.5830    12.0960 o          1 A1A      -0.579100
     23 S09         25.5010     5.8330    13.9270 sy         1 A1A       1.172600
     24 CL15        25.4350     5.0090    19.2950 cl         1 A1A      -0.197000
     25 H1          25.7500     3.7510    17.2190 ho         1 A1A       0.497000
     26 H161        24.8810     7.7900    19.1560 ha         1 A1A       0.132000
     27 H171        24.6620     9.3210    17.2230 ha         1 A1A       0.129000
     28 H201        23.9510     3.8780    11.2450 ha         1 A1A       0.119000
     29 H211        21.8750     4.1990     9.9560 ha         1 A1A       0.120000
     30 H013        16.8370     7.3840    13.9460 hc         1 A1A       0.063367
     31 H011        17.7620     6.5280    15.1890 hc         1 A1A       0.063367
     32 H012        18.2180     8.1610    14.7280 hc         1 A1A       0.063367
     33 H041        20.2200     7.3140    15.4740 h1         1 A1A       0.049700
     34 H042        19.9660     5.5720    15.6190 h1         1 A1A       0.049700
     35 H051        22.5040     7.0540    14.9770 hc         1 A1A       0.065200
     36 H052        22.3270     5.4730    15.7220 hc         1 A1A       0.065200
     37 H181        24.9180     8.4410    14.9310 ha         1 A1A       0.151000
     38 H221        19.9360     5.3420    10.9370 ha         1 A1A       0.151000
     39 H081        24.7970     3.7220    13.6440 hn         1 A1A       0.503000
@<TRIPOS>BOND
     1     1     2 1   
     2     1     3 ar  
     3     1    14 ar  
     4     2    25 1   
     5     3     4 ar  
     6     3    24 1   
     7     4     5 ar  
     8     4    26 1   
     9     5    15 ar  
    10     5    27 1   
    11     6     7 ar  
    12     6    13 ar  
    13     6    28 1   
    14     7    16 ar  
    15     7    29 1   
    16     8     9 1   
    17     8    30 1   
    18     8    31 1   
    19     8    32 1   
    20     9    18 1   
    21     9    22 2   
    22    10    11 1   
    23    10    18 1   
    24    10    33 1   
    25    10    34 1   
    26    11    12 1   
    27    11    35 1   
    28    11    36 1   
    29    12    13 ar  
    30    12    17 ar  
    31    13    19 1   
    32    14    15 ar  
    33    14    23 1   
    34    15    37 1   
    35    16    17 ar  
    36    16    38 1   
    37    17    18 1   
    38    19    23 1   
    39    19    39 1   
    40    20    23 2   
    41    21    23 2   
@<TRIPOS>SUBSTRUCTURE
     1 A1A         1 TEMP              0 ****  ****    0 ROOT
