@<TRIPOS>MOLECULE
A1A
   33    35     1     0     0
SMALL
abcg2


@<TRIPOS>ATOM
      1 C12         25.6890     6.0470    15.6810 ca         1 A1A      -0.338500
      2 C13         25.6120     5.3330    16.8800 ca         1 A1A       0.234100
      3 C15         25.5600     6.0640    18.0670 ca         1 A1A      -0.003000
      4 C17         25.5940     7.4460    18.0640 ca         1 A1A      -0.008000
      5 C19         25.7170     7.4350    15.6700 ca         1 A1A       0.033000
      6 O20         26.8800     4.2150    14.2100 o          1 A1A      -0.519000
      7 C23         21.5400     5.7330    12.1450 ca         1 A1A      -0.048000
      8 C02         18.9570     6.9360    14.2250 cc         1 A1A       0.413200
      9 C04         20.7240     6.1220    13.2050 ca         1 A1A       0.108400
     10 C05         21.1460     5.9040    14.5250 ca         1 A1A      -0.184000
     11 C07         22.3710     5.3190    14.8030 ca         1 A1A      -0.084000
     12 C08         23.1800     4.9280    13.7480 ca         1 A1A       0.258000
     13 C18         25.6720     8.1350    16.8630 ca         1 A1A      -0.160000
     14 C21         22.7500     5.1340    12.4250 ca         1 A1A       0.147000
     15 N03         19.4890     6.7060    13.0770 nd         1 A1A      -0.531100
     16 N09         24.4070     4.2710    13.9930 nu         1 A1A      -0.883100
     17 O11         25.7570     6.1710    13.0930 o          1 A1A      -0.519000
     18 O14         25.5680     4.0040    16.8240 oh         1 A1A      -0.538100
     19 S06         19.9230     6.4620    15.6080 ss         1 A1A       0.022800
     20 S10         25.7940     5.1700    14.1400 sy         1 A1A       1.172600
     21 CL16        25.4460     5.1970    19.5610 cl         1 A1A      -0.196000
     22 CL22        23.7240     4.5810    11.1150 cl         1 A1A      -0.151000
     23 H1          25.5560     7.9830    19.0020 ha         1 A1A       0.134000
     24 H2          25.7760     7.9690    14.7330 ha         1 A1A       0.153000
     25 H3          21.2140     5.8860    11.1250 ha         1 A1A       0.153000
     26 H4          17.1560     7.7530    13.4740 hc         1 A1A       0.064367
     27 H5          16.9750     6.8990    15.0140 hc         1 A1A       0.064367
     28 H6          17.7130     8.4950    14.9820 hc         1 A1A       0.064367
     29 H7          22.6950     5.1480    15.8220 ha         1 A1A       0.127000
     30 H8          25.6970     9.2150    16.8610 ha         1 A1A       0.131000
     31 H9          24.3670     3.4910    14.6420 hn         1 A1A       0.504000
     32 H10         25.4650     3.6080    17.7010 ho         1 A1A       0.501000
     33 C01         17.6240     7.5550    14.4340 c3         1 A1A      -0.121400
@<TRIPOS>BOND
     1     1     2 ar  
     2     1     5 ar  
     3     1    20 1   
     4     2     3 ar  
     5     2    18 1   
     6     3     4 ar  
     7     3    21 1   
     8     4    13 ar  
     9     4    23 1   
    10     5    13 ar  
    11     5    24 1   
    12     6    20 2   
    13     7     9 ar  
    14     7    14 ar  
    15     7    25 1   
    16     8    15 2   
    17     8    19 1   
    18     8    33 1   
    19     9    10 ar  
    20     9    15 1   
    21    10    11 ar  
    22    10    19 1   
    23    11    12 ar  
    24    11    29 1   
    25    12    14 ar  
    26    12    16 1   
    27    13    30 1   
    28    14    22 1   
    29    16    20 1   
    30    16    31 1   
    31    17    20 2   
    32    18    32 1   
    33    26    33 1   
    34    27    33 1   
    35    28    33 1   
@<TRIPOS>SUBSTRUCTURE
     1 A1A         1 TEMP              0 ****  ****    0 ROOT
