@<TRIPOS>MOLECULE
A1A
   32    34     1     0     0
SMALL
abcg2


@<TRIPOS>ATOM
      1 C01         26.3700     7.5150    21.8810 c3         1 A1A      -0.070900
      2 C02         26.4360     6.8080    20.5860 cc         1 A1A       0.262900
      3 C03         26.0980     7.1390    19.3150 cd         1 A1A      -0.528300
      4 C07         23.7020     8.6780    16.7380 ca         1 A1A       0.256000
      5 C08         24.2240     8.0260    15.6290 ca         1 A1A      -0.052000
      6 C09         23.8670     8.4330    14.3480 ca         1 A1A      -0.113500
      7 C10         24.3930     7.7490    13.1630 cc         1 A1A       0.296500
      8 C11         24.5870     6.4040    12.9660 cd         1 A1A      -0.066000
      9 C16         22.9890     9.5050    14.1860 ca         1 A1A      -0.071000
     10 C17         22.4690    10.1490    15.2960 ca         1 A1A      -0.106000
     11 C18         22.8260     9.7430    16.5740 ca         1 A1A      -0.120000
     12 C20         26.4370     6.0130    18.4620 c          1 A1A       0.598200
     13 N06         24.0360     8.2110    18.0370 nu         1 A1A      -0.908100
     14 N14         25.1410     7.8020    11.0680 nd         1 A1A      -0.139100
     15 N15         24.7180     8.4720    12.0560 nc         1 A1A      -0.288000
     16 N22         26.8390     5.0520    19.3590 ns         1 A1A      -0.342400
     17 O05         26.3340     9.1430    17.6840 o          1 A1A      -0.543500
     18 O19         25.2180     9.4740    19.9120 o          1 A1A      -0.543500
     19 O21         26.3790     5.8610    17.2590 o          1 A1A      -0.496000
     20 O23         26.9270     5.5730    20.6240 os         1 A1A      -0.092200
     21 S04         25.4740     8.6530    18.7420 sy         1 A1A       1.215200
     22 S13         25.1820     6.1600    11.3960 ss         1 A1A       0.310100
     23 CL12        24.2570     5.1270    14.0250 cl         1 A1A      -0.087000
     24 H011        26.7610     6.8900    22.6800 hc         1 A1A       0.088700
     25 H013        26.9500     8.4350    21.8380 hc         1 A1A       0.088700
     26 H012        25.3410     7.7840    22.1140 hc         1 A1A       0.088700
     27 H081        24.9160     7.2100    15.7840 ha         1 A1A       0.153000
     28 H161        22.7030     9.8260    13.1930 ha         1 A1A       0.130000
     29 H171        21.7830    10.9750    15.1670 ha         1 A1A       0.120000
     30 H181        22.4230    10.2510    17.4420 ha         1 A1A       0.116000
     31 H061        23.2730     8.2180    18.7070 hn         1 A1A       0.488000
     32 H1          27.5410     4.3430    19.1840 hn         1 A1A       0.354500
@<TRIPOS>BOND
     1     1     2 1   
     2     1    24 1   
     3     1    25 1   
     4     1    26 1   
     5     2     3 2   
     6     2    20 1   
     7     3    12 1   
     8     3    21 1   
     9     4     5 ar  
    10     4    11 ar  
    11     4    13 1   
    12     5     6 ar  
    13     5    27 1   
    14     6     7 1   
    15     6     9 ar  
    16     7     8 2   
    17     7    15 1   
    18     8    22 1   
    19     8    23 1   
    20     9    10 ar  
    21     9    28 1   
    22    10    11 ar  
    23    10    29 1   
    24    11    30 1   
    25    12    16 1   
    26    12    19 2   
    27    13    21 1   
    28    13    31 1   
    29    14    15 2   
    30    14    22 1   
    31    16    20 1   
    32    16    32 1   
    33    17    21 2   
    34    18    21 2   
@<TRIPOS>SUBSTRUCTURE
     1 A1A         1 TEMP              0 ****  ****    0 ROOT
