@<TRIPOS>MOLECULE
A1A
   46    49     1     0     0
SMALL
abcg2


@<TRIPOS>ATOM
      1 C02         21.2700     3.2370    11.0280 c          1 A1A       0.709000
      2 C03         22.0180     3.4960    12.3640 c3         1 A1A       0.001300
      3 C05         20.9220     5.5380    13.0540 ca         1 A1A       0.198100
      4 C06         21.1690     6.2510    11.8800 ca         1 A1A      -0.169000
      5 C09         19.8540     7.4960    13.9880 ca         1 A1A      -0.084000
      6 C10         20.2560     6.1770    14.1040 ca         1 A1A      -0.169000
      7 C13         24.5290     5.6350    13.6880 c          1 A1A       0.609100
      8 C15         24.2650     5.1480    16.2670 c5         1 A1A      -0.071400
      9 C19         25.0070     7.3370    15.5490 c5         1 A1A      -0.014700
     10 C21         25.7440     8.2150    17.9520 cx         1 A1A      -0.125400
     11 C22         26.5860     6.9940    17.6660 cx         1 A1A      -0.125400
     12 C07         20.7620     7.5770    11.7800 ca         1 A1A      -0.084000
     13 C08         20.1070     8.2120    12.8230 ca         1 A1A      -0.182000
     14 C11         23.4560     4.0020    12.1790 c3         1 A1A       0.078000
     15 C14         25.0160     5.8650    15.1050 c5         1 A1A      -0.148700
     16 C16         24.0440     6.2740    17.2890 c5         1 A1A      -0.043700
     17 C17         22.9180     7.1780    16.7730 c5         1 A1A      -0.075400
     18 C18         23.5680     7.8810    15.5530 c5         1 A1A      -0.072400
     19 C20         25.2510     7.1560    17.0340 cx         1 A1A      -0.121000
     20 N12         24.0460     4.4060    13.4330 ns         1 A1A      -0.495900
     21 O01         21.9970     2.9130    10.0710 o          1 A1A      -0.705500
     22 O04         21.2750     4.2640    13.2930 os         1 A1A      -0.343100
     23 O23         24.6300     6.5050    12.8310 o          1 A1A      -0.620100
     24 O24         20.0330     3.3290    11.0590 o          1 A1A      -0.705500
     25 H031        22.0880     2.5230    12.8640 h1         1 A1A       0.052700
     26 H061        21.6700     5.8020    11.0360 ha         1 A1A       0.123000
     27 H091        19.3420     7.9680    14.8170 ha         1 A1A       0.091500
     28 H101        20.0600     5.6260    15.0160 ha         1 A1A       0.123000
     29 H191        25.7260     7.9620    15.0200 hc         1 A1A       0.074700
     30 H211        26.0620     9.1600    17.5260 hc         1 A1A       0.065200
     31 H212        25.2910     8.3020    18.9330 hc         1 A1A       0.065200
     32 H221        27.4690     7.1220    17.0500 hc         1 A1A       0.065200
     33 H222        26.7010     6.2620    18.4570 hc         1 A1A       0.065200
     34 H071        20.9650     8.1130    10.8610 ha         1 A1A       0.091500
     35 H081        19.7970     9.2450    12.7310 ha         1 A1A       0.091000
     36 H112        24.0360     3.1920    11.7350 h1         1 A1A       0.069700
     37 H111        23.5210     4.8430    11.4940 h1         1 A1A       0.069700
     38 H141        26.0590     5.5250    15.1110 hc         1 A1A       0.056700
     39 H161        23.9090     5.9220    18.3130 hc         1 A1A       0.055700
     40 H172        22.0230     6.6120    16.5060 hc         1 A1A       0.043700
     41 H171        22.6280     7.9030    17.5350 hc         1 A1A       0.043700
     42 H182        23.0370     7.6860    14.6210 hc         1 A1A       0.058200
     43 H181        23.5790     8.9650    15.6860 hc         1 A1A       0.058200
     44 H121        24.0270     3.7370    14.1870 hn         1 A1A       0.300500
     45 H152        23.3120     4.7080    15.9600 hc         1 A1A       0.048200
     46 H151        24.8710     4.3430    16.6840 hc         1 A1A       0.048200
@<TRIPOS>BOND
     1     1     2 1   
     2     1    21 1   
     3     1    24 1   
     4     2    14 1   
     5     2    22 1   
     6     2    25 1   
     7     3     4 ar  
     8     3     6 ar  
     9     3    22 1   
    10     4    12 ar  
    11     4    26 1   
    12     5     6 ar  
    13     5    13 ar  
    14     5    27 1   
    15     6    28 1   
    16     7    15 1   
    17     7    20 1   
    18     7    23 2   
    19     8    15 1   
    20     8    16 1   
    21     8    45 1   
    22     8    46 1   
    23     9    15 1   
    24     9    18 1   
    25     9    19 1   
    26     9    29 1   
    27    10    11 1   
    28    10    19 1   
    29    10    30 1   
    30    10    31 1   
    31    11    19 1   
    32    11    32 1   
    33    11    33 1   
    34    12    13 ar  
    35    12    34 1   
    36    13    35 1   
    37    14    20 1   
    38    14    36 1   
    39    14    37 1   
    40    15    38 1   
    41    16    17 1   
    42    16    19 1   
    43    16    39 1   
    44    17    18 1   
    45    17    40 1   
    46    17    41 1   
    47    18    42 1   
    48    18    43 1   
    49    20    44 1   
@<TRIPOS>SUBSTRUCTURE
     1 A1A         1 TEMP              0 ****  ****    0 ROOT
