@<TRIPOS>MOLECULE
A1A
   46    49     1     0     0
SMALL
No Charge or Current Charge


@<TRIPOS>ATOM
      1 C02         22.0490     3.3240    10.2750 c          1 A1A       0.709000
      2 C03         22.7100     3.4600    11.6870 c3         1 A1A       0.001300
      3 C05         20.9730     4.6810    13.0550 ca         1 A1A       0.198100
      4 C06         20.7680     5.7290    12.1310 ca         1 A1A      -0.169000
      5 C09         19.5620     5.8520    14.6680 ca         1 A1A      -0.084000
      6 C10         20.3600     4.7500    14.3180 ca         1 A1A      -0.169000
      7 C13         24.0480     6.2060    13.6770 c          1 A1A       0.609100
      8 C15         22.9920     6.7820    15.9800 c5         1 A1A      -0.071400
      9 C19         25.4730     6.8700    15.7970 c5         1 A1A      -0.014700
     10 C21         25.8990     7.3010    18.3750 cx         1 A1A      -0.125400
     11 C22         25.1660     5.9570    18.2640 cx         1 A1A      -0.125400
     12 C07         19.9690     6.8320    12.4800 ca         1 A1A      -0.084000
     13 C08         19.3690     6.8940    13.7480 ca         1 A1A      -0.182000
     14 C11         23.7890     4.5800    11.7650 c3         1 A1A       0.078000
     15 C14         24.2100     6.1210    15.2250 c5         1 A1A      -0.148700
     16 C16         23.6790     7.7480    17.0040 c5         1 A1A      -0.043700
     17 C17         24.1970     8.9640    16.1660 c5         1 A1A      -0.075400
     18 C18         25.4470     8.3890    15.4030 c5         1 A1A      -0.072400
     19 C20         24.9850     7.0180    17.2190 cx         1 A1A      -0.121000
     20 N12         24.1410     4.9370    13.1480 ns         1 A1A      -0.495900
     21 O01         22.7520     3.5130     9.2910 o          1 A1A      -0.705500
     22 O04         21.7650     3.5740    12.7970 os         1 A1A      -0.343100
     23 O23         23.8290     7.1960    12.9920 o          1 A1A      -0.620100
     24 O24         20.8550     3.0620    10.1940 o          1 A1A      -0.705500
     25 H031        23.2500     2.5150    11.8210 h1         1 A1A       0.052700
     26 H061        21.2130     5.7060    11.1430 ha         1 A1A       0.123000
     27 H091        19.0970     5.8990    15.6510 ha         1 A1A       0.091500
     28 H101        20.5150     3.9460    15.0330 ha         1 A1A       0.123000
     29 H191        26.4340     6.3600    15.6540 hc         1 A1A       0.074700
     30 H211        26.9700     7.3110    18.1890 hc         1 A1A       0.065200
     31 H212        25.5590     8.0020    19.1340 hc         1 A1A       0.065200
     32 H221        25.7540     5.0800    18.0050 hc         1 A1A       0.065200
     33 H222        24.3420     5.7700    18.9490 hc         1 A1A       0.065200
     34 H071        19.8150     7.6390    11.7660 ha         1 A1A       0.091500
     35 H081        18.7530     7.7490    14.0160 ha         1 A1A       0.091000
     36 H112        24.6960     4.2410    11.2480 h1         1 A1A       0.069700
     37 H111        23.4320     5.4710    11.2330 h1         1 A1A       0.069700
     38 H141        24.2860     5.0660    15.5170 hc         1 A1A       0.056700
     39 H161        23.0880     7.9990    17.8930 hc         1 A1A       0.055700
     40 H172        23.4370     9.3610    15.4830 hc         1 A1A       0.043700
     41 H171        24.4930     9.7930    16.8200 hc         1 A1A       0.043700
     42 H182        25.4160     8.5700    14.3250 hc         1 A1A       0.058200
     43 H181        26.3600     8.8830    15.7540 hc         1 A1A       0.058200
     44 H121        24.3030     4.1850    13.8060 hn         1 A1A       0.300500
     45 H152        22.2980     7.3040    15.3100 hc         1 A1A       0.048200
     46 H151        22.4010     6.0170    16.4970 hc         1 A1A       0.048200
@<TRIPOS>BOND
     1     1     2 1   
     2     1    21 1   
     3     1    24 1   
     4     2    14 1   
     5     2    22 1   
     6     2    25 1   
     7     3     4 ar  
     8     3     6 ar  
     9     3    22 1   
    10     4    12 ar  
    11     4    26 1   
    12     5     6 ar  
    13     5    13 ar  
    14     5    27 1   
    15     6    28 1   
    16     7    15 1   
    17     7    20 1   
    18     7    23 2   
    19     8    15 1   
    20     8    16 1   
    21     8    45 1   
    22     8    46 1   
    23     9    15 1   
    24     9    18 1   
    25     9    19 1   
    26     9    29 1   
    27    10    11 1   
    28    10    19 1   
    29    10    30 1   
    30    10    31 1   
    31    11    19 1   
    32    11    32 1   
    33    11    33 1   
    34    12    13 ar  
    35    12    34 1   
    36    13    35 1   
    37    14    20 1   
    38    14    36 1   
    39    14    37 1   
    40    15    38 1   
    41    16    17 1   
    42    16    19 1   
    43    16    39 1   
    44    17    18 1   
    45    17    40 1   
    46    17    41 1   
    47    18    42 1   
    48    18    43 1   
    49    20    44 1   
@<TRIPOS>SUBSTRUCTURE
     1 A1A         1 TEMP              0 ****  ****    0 ROOT
