@<TRIPOS>MOLECULE
A1A
   32    34     1     0     0
SMALL
No Charge or Current Charge


@<TRIPOS>ATOM
      1 C01         24.8550     7.0000    20.7620 c3         1 A1A      -0.070900
      2 C02         25.7780     6.5930    19.6500 cc         1 A1A       0.262900
      3 C03         26.4810     7.3190    18.7330 cd         1 A1A      -0.528300
      4 C07         24.1880     9.1900    17.1440 ca         1 A1A       0.256000
      5 C08         24.6010     8.3800    16.0670 ca         1 A1A      -0.052000
      6 C09         23.8230     8.2750    14.8930 ca         1 A1A      -0.113500
      7 C10         24.2770     7.4670    13.7550 cc         1 A1A       0.296500
      8 C11         24.7180     6.1820    13.9190 cd         1 A1A      -0.066000
      9 C16         22.6450     9.0420    14.7870 ca         1 A1A      -0.071000
     10 C17         22.2230     9.8470    15.8570 ca         1 A1A      -0.106000
     11 C18         22.9880     9.9110    17.0340 ca         1 A1A      -0.120000
     12 C20         27.2550     6.4530    17.9040 c          1 A1A       0.598200
     13 N06         24.9160     9.2930    18.3300 nu         1 A1A      -0.908100
     14 N14         24.6330     7.0010    11.6140 nd         1 A1A      -0.139100
     15 N15         24.2100     7.9150    12.4590 nc         1 A1A      -0.288000
     16 N22         26.8940     5.2040    18.3030 ns         1 A1A      -0.342400
     17 O05         27.2300     9.5180    17.4090 o          1 A1A      -0.543500
     18 O19         26.7330     9.6560    19.9340 o          1 A1A      -0.543500
     19 O21         28.0800     6.7220    17.0490 o          1 A1A      -0.496000
     20 O23         26.0300     5.2510    19.4570 os         1 A1A      -0.092200
     21 S04         26.5470     9.0510    18.6160 sy         1 A1A       1.215200
     22 S13         25.1010     5.5620    12.3400 ss         1 A1A       0.310100
     23 Cl12        24.8110     5.2220    15.3690 cl         1 A1A      -0.087000
     24 H011        24.5390     6.1310    21.3490 hc         1 A1A       0.088700
     25 H013        25.3490     7.7040    21.4410 hc         1 A1A       0.088700
     26 H012        23.9560     7.4810    20.3620 hc         1 A1A       0.088700
     27 H081        25.5350     7.8340    16.1340 ha         1 A1A       0.153000
     28 H161        22.0450     9.0030    13.8790 ha         1 A1A       0.130000
     29 H171        21.3030    10.4210    15.7740 ha         1 A1A       0.120000
     30 H181        22.6500    10.5340    17.8570 ha         1 A1A       0.116000
     31 H061        24.6420    10.0210    18.9740 hn         1 A1A       0.488000
     32 H1          27.5580     4.4380    18.2610 hn         1 A1A       0.354500
@<TRIPOS>BOND
     1     1     2 1   
     2     1    24 1   
     3     1    25 1   
     4     1    26 1   
     5     2     3 2   
     6     2    20 1   
     7     3    12 1   
     8     3    21 1   
     9     4     5 ar  
    10     4    11 ar  
    11     4    13 1   
    12     5     6 ar  
    13     5    27 1   
    14     6     7 1   
    15     6     9 ar  
    16     7     8 2   
    17     7    15 1   
    18     8    22 1   
    19     8    23 1   
    20     9    10 ar  
    21     9    28 1   
    22    10    11 ar  
    23    10    29 1   
    24    11    30 1   
    25    12    16 1   
    26    12    19 2   
    27    13    21 1   
    28    13    31 1   
    29    14    15 2   
    30    14    22 1   
    31    16    20 1   
    32    16    32 1   
    33    17    21 2   
    34    18    21 2   
@<TRIPOS>SUBSTRUCTURE
     1 A1A         1 TEMP              0 ****  ****    0 ROOT
