@<TRIPOS>MOLECULE
A1A
   47    50     1     0     0
SMALL
abcg2


@<TRIPOS>ATOM
      1 N3          -5.5540     1.2780    -6.0980 ns         1 A1A      -0.514900
      2 C4          -6.8020     1.7570    -5.9610 c          1 A1A       0.567000
      3 C5          -7.0760     2.6550    -4.7740 c6         1 A1A      -0.154400
      4 C6          -6.0770     2.5110    -3.6330 c6         1 A1A      -0.136700
      5 C7          -6.2710     3.6170    -2.6050 c          1 A1A       0.604100
      6 C10         -6.7440     3.6750     0.9950 c6         1 A1A      -0.090400
      7 C13         -5.5290     2.0380    -0.8360 c6         1 A1A       0.104000
      8 C15         -3.5760     3.7330     2.7430 cc         1 A1A      -0.147100
      9 C17         -4.3980     4.3410     4.7200 ca         1 A1A      -0.062200
     10 C20         -6.8930     4.1570     5.8030 ca         1 A1A       0.140000
     11 C21         -6.7240     3.6700     4.5300 ca         1 A1A      -0.107000
     12 C22         -5.4440     3.7640     3.9680 ca         1 A1A      -0.075800
     13 C1          -4.6650     2.5740    -4.2170 c6         1 A1A      -0.088400
     14 C2          -4.4550     1.4070    -5.1600 c6         1 A1A       0.116000
     15 N8          -6.0320     3.3260    -1.3120 n          1 A1A      -0.412800
     16 C9          -6.2850     4.3390    -0.2910 c6         1 A1A       0.104000
     17 C11         -5.6650     2.7370     1.5850 c6         1 A1A       0.018500
     18 C12         -4.7570     2.2360     0.4580 c6         1 A1A      -0.090400
     19 C14         -4.8990     3.3820     2.6980 cd         1 A1A      -0.141400
     20 N16         -3.2750     4.3050     3.9460 na         1 A1A      -0.220700
     21 C18         -4.5940     4.8240     6.0110 ca         1 A1A      -0.100000
     22 C19         -5.8620     4.7290     6.5520 ca         1 A1A      -0.128000
     23 O24         -6.6160     4.7370    -2.9660 o          1 A1A      -0.604100
     24 O25         -7.6800     1.5170    -6.7810 o          1 A1A      -0.569000
     25 H1          -5.4040     0.6680    -6.8890 hn         1 A1A       0.314500
     26 H2          -7.0720     3.6830    -5.1440 hc         1 A1A       0.088700
     27 H3          -8.0940     2.4520    -4.4370 hc         1 A1A       0.088700
     28 H4          -6.2210     1.5300    -3.1740 hc         1 A1A       0.061700
     29 H5          -7.0220     4.4500     1.7100 hc         1 A1A       0.053200
     30 H6          -7.6550     3.1090     0.7850 hc         1 A1A       0.053200
     31 H7          -6.3490     1.3280    -0.6840 h1         1 A1A       0.050700
     32 H8          -4.8580     1.6020    -1.5740 h1         1 A1A       0.050700
     33 H9          -2.8050     3.6160     1.9990 h4         1 A1A       0.212000
     34 H10         -7.5560     3.2320     3.9910 ha         1 A1A       0.133000
     35 H11         -3.9010     2.5320    -3.4390 hc         1 A1A       0.061200
     36 H12         -4.5340     3.5220    -4.7450 hc         1 A1A       0.061200
     37 H13         -4.3460     0.4840    -4.5830 h1         1 A1A       0.038700
     38 H14         -3.5320     1.5430    -5.7260 h1         1 A1A       0.038700
     39 H15         -5.3890     4.9440    -0.1150 h1         1 A1A       0.050700
     40 H16         -7.0560     5.0160    -0.6530 h1         1 A1A       0.050700
     41 H17         -6.1870     1.8670     1.9980 hc         1 A1A       0.057700
     42 H18         -4.2800     1.2960     0.7400 hc         1 A1A       0.053200
     43 H19         -3.9520     2.9490     0.2600 hc         1 A1A       0.053200
     44 H20         -2.3670     4.6460     4.2120 hn         1 A1A       0.354000
     45 H21         -3.7850     5.2640     6.5800 ha         1 A1A       0.119000
     46 H22         -6.0630     5.0940     7.5510 ha         1 A1A       0.131000
     47 F23         -8.1170     4.0870     6.3680 f          1 A1A      -0.185000
@<TRIPOS>BOND
     1     1     2 1   
     2     1    14 1   
     3     1    25 1   
     4     2     3 1   
     5     2    24 2   
     6     3     4 1   
     7     3    26 1   
     8     3    27 1   
     9     4     5 1   
    10     4    13 1   
    11     4    28 1   
    12     5    15 1   
    13     5    23 2   
    14     6    16 1   
    15     6    17 1   
    16     6    29 1   
    17     6    30 1   
    18     7    15 1   
    19     7    18 1   
    20     7    31 1   
    21     7    32 1   
    22     8    19 2   
    23     8    20 1   
    24     8    33 1   
    25     9    12 ar  
    26     9    20 1   
    27     9    21 ar  
    28    10    11 ar  
    29    10    22 ar  
    30    10    47 1   
    31    11    12 ar  
    32    11    34 1   
    33    12    19 1   
    34    13    14 1   
    35    13    35 1   
    36    13    36 1   
    37    14    37 1   
    38    14    38 1   
    39    15    16 1   
    40    16    39 1   
    41    16    40 1   
    42    17    18 1   
    43    17    19 1   
    44    17    41 1   
    45    18    42 1   
    46    18    43 1   
    47    20    44 1   
    48    21    22 ar  
    49    21    45 1   
    50    22    46 1   
@<TRIPOS>SUBSTRUCTURE
     1 A1A         1 TEMP              0 ****  ****    0 ROOT
