@<TRIPOS>MOLECULE
A1A
   43    45     1     0     0
SMALL
No Charge or Current Charge


@<TRIPOS>ATOM
      1 C4         -49.1210    15.7840    -7.6250 cc         1 A1A       0.377400
      2 C14        -52.4660     6.7400    -2.6570 ca         1 A1A      -0.213000
      3 C5         -48.1450    12.2500    -7.3140 ca         1 A1A       0.352000
      4 C6         -48.7500    10.2560    -6.2510 ca         1 A1A       0.499900
      5 C11        -51.0920     8.2760    -3.9330 ca         1 A1A      -0.235600
      6 C7         -47.7210     9.5310    -6.8740 ca         1 A1A      -0.162000
      7 C8         -46.8720    10.2070    -7.7610 ca         1 A1A      -0.058000
      8 C9         -47.0920    11.5770    -7.9810 ca         1 A1A      -0.143000
      9 C10        -50.0080     8.4770    -4.9690 c          1 A1A       0.646700
     10 C12        -51.7620     9.3310    -3.2640 ca         1 A1A       0.620300
     11 C13        -53.0720     7.8420    -2.0520 ca         1 A1A       0.407900
     12 N1         -49.3290    14.5620    -7.0200 na         1 A1A      -0.359000
     13 N2         -47.6260    14.4210    -8.4200 nd         1 A1A      -0.350000
     14 C3         -48.3620    13.7110    -7.5710 cc         1 A1A       0.347500
     15 N3         -48.0970    15.7050    -8.4540 nd         1 A1A      -0.347000
     16 C1         -51.7620    13.9050    -6.7000 c3         1 A1A       0.290000
     17 C15        -51.4630     6.9520    -3.6090 ca         1 A1A       0.009000
     18 C17        -50.5430    15.4070    -4.9830 c3         1 A1A      -0.108100
     19 C2         -50.4040    14.2680    -6.0270 c3         1 A1A       0.023300
     20 F1         -52.2790    14.9650    -7.3650 f          1 A1A      -0.108000
     21 F2         -51.6180    12.8950    -7.5890 f          1 A1A      -0.108000
     22 F3         -52.6720    13.5120    -5.7790 f          1 A1A      -0.108000
     23 N4         -48.9560    11.5680    -6.4550 nb         1 A1A      -0.771000
     24 N5         -49.6870     9.7590    -5.3420 ns         1 A1A      -0.312900
     25 N6         -52.7290     9.1110    -2.3460 nb         1 A1A      -0.763000
     26 O1         -49.4430     7.5110    -5.4640 o          1 A1A      -0.588100
     27 O2         -51.4330    10.6410    -3.5270 os         1 A1A      -0.486300
     28 H1         -49.7250    16.6610    -7.4280 h5         1 A1A       0.069100
     29 H3         -47.5680     8.4750    -6.6790 ha         1 A1A       0.160000
     30 H4         -46.0620     9.6840    -8.2660 ha         1 A1A       0.127000
     31 H5         -46.4430    12.1140    -8.6670 ha         1 A1A       0.155000
     32 H6         -53.8560     7.7080    -1.3070 h4         1 A1A       0.025100
     33 H7         -50.9870     6.0950    -4.0850 ha         1 A1A       0.147000
     34 H8         -51.6810    12.6970    -3.2200 h1         1 A1A       0.051367
     35 H9         -53.1720    11.7420    -3.0990 h1         1 A1A       0.051367
     36 H10        -51.9670    11.6920    -1.7860 h1         1 A1A       0.051367
     37 H11        -51.2380    15.1210    -4.1850 hc         1 A1A       0.062033
     38 H12        -49.5730    15.6230    -4.5180 hc         1 A1A       0.062033
     39 H13        -50.9180    16.3310    -5.4400 hc         1 A1A       0.062033
     40 H14        -50.1080    13.3940    -5.4380 h1         1 A1A       0.130700
     41 H15        -50.2290    10.4850    -4.8970 hn         1 A1A       0.184000
     42 H2         -52.7740     5.7340    -2.3870 ha         1 A1A       0.136000
     43 C16        -52.0980    11.7430    -2.8750 c3         1 A1A       0.168900
@<TRIPOS>BOND
     1     1    12 1   
     2     1    15 2   
     3     1    28 1   
     4     2    11 ar  
     5     2    17 ar  
     6     2    42 1   
     7     3     8 ar  
     8     3    14 1   
     9     3    23 ar  
    10     4     6 ar  
    11     4    23 ar  
    12     4    24 1   
    13     5     9 1   
    14     5    10 ar  
    15     5    17 ar  
    16     6     7 ar  
    17     6    29 1   
    18     7     8 ar  
    19     7    30 1   
    20     8    31 1   
    21     9    24 1   
    22     9    26 2   
    23    10    25 ar  
    24    10    27 1   
    25    11    25 ar  
    26    11    32 1   
    27    12    14 1   
    28    12    19 1   
    29    13    14 2   
    30    13    15 1   
    31    16    19 1   
    32    16    20 1   
    33    16    21 1   
    34    16    22 1   
    35    17    33 1   
    36    18    19 1   
    37    18    37 1   
    38    18    38 1   
    39    18    39 1   
    40    19    40 1   
    41    24    41 1   
    42    27    43 1   
    43    34    43 1   
    44    35    43 1   
    45    36    43 1   
@<TRIPOS>SUBSTRUCTURE
     1 A1A         1 TEMP              0 ****  ****    0 ROOT
