@<TRIPOS>MOLECULE
A1A
   43    45     1     0     0
SMALL
abcg2


@<TRIPOS>ATOM
      1 C4         -49.1760    15.6770    -7.5980 cc         1 A1A       0.377400
      2 C14        -52.4930     6.8380    -2.8040 ca         1 A1A      -0.213000
      3 C5         -48.1680    12.2420    -7.3570 ca         1 A1A       0.352000
      4 C6         -48.7900    10.3260    -6.2520 ca         1 A1A       0.499900
      5 C11        -51.0290     8.4110    -3.8990 ca         1 A1A      -0.235600
      6 C7         -47.7860     9.5780    -6.8680 ca         1 A1A      -0.162000
      7 C8         -46.9570    10.2430    -7.7560 ca         1 A1A      -0.058000
      8 C9         -47.1310    11.5920    -8.0190 ca         1 A1A      -0.143000
      9 C10        -49.8850     8.5990    -4.8440 c          1 A1A       0.646700
     10 C12        -51.7520     9.4210    -3.2260 ca         1 A1A       0.620300
     11 C13        -53.1290     7.9140    -2.2160 ca         1 A1A       0.407900
     12 N1         -49.3580    14.4670    -7.0140 na         1 A1A      -0.359000
     13 N2         -47.7370    14.3660    -8.4690 nd         1 A1A      -0.350000
     14 C3         -48.4210    13.6650    -7.6050 cc         1 A1A       0.347500
     15 N3         -48.2110    15.6270    -8.4660 nd         1 A1A      -0.347000
     16 C1         -51.6690    13.8040    -6.6860 c3         1 A1A       0.290000
     17 C15        -51.4290     7.1050    -3.6510 ca         1 A1A       0.009000
     18 C17        -50.5160    15.2960    -4.9940 c3         1 A1A      -0.108100
     19 C2         -50.3580    14.1640    -5.9980 c3         1 A1A       0.023300
     20 F1         -52.2280    14.8540    -7.3000 f          1 A1A      -0.108000
     21 F2         -51.5050    12.8590    -7.6140 f          1 A1A      -0.108000
     22 F3         -52.5560    13.3450    -5.7960 f          1 A1A      -0.108000
     23 N4         -48.9590    11.6170    -6.5000 nb         1 A1A      -0.771000
     24 N5         -49.7200     9.8520    -5.3390 ns         1 A1A      -0.312900
     25 N6         -52.7610     9.1740    -2.4210 nb         1 A1A      -0.763000
     26 O1         -49.1820     7.6560    -5.1610 o          1 A1A      -0.588100
     27 O2         -51.3850    10.6900    -3.4070 os         1 A1A      -0.486300
     28 H1         -49.7570    16.5540    -7.3600 h5         1 A1A       0.069100
     29 H3         -47.6540     8.5280    -6.6670 ha         1 A1A       0.160000
     30 H4         -46.1640     9.6970    -8.2500 ha         1 A1A       0.127000
     31 H5         -46.4910    12.1170    -8.7120 ha         1 A1A       0.155000
     32 H6         -53.9710     7.7640    -1.5500 h4         1 A1A       0.025100
     33 H7         -50.9050     6.2920    -4.1330 ha         1 A1A       0.147000
     34 H8         -51.5850    12.6480    -3.0070 h1         1 A1A       0.051367
     35 H9         -53.1320    11.7700    -3.0370 h1         1 A1A       0.051367
     36 H10        -52.0380    11.5970    -1.6480 h1         1 A1A       0.051367
     37 H11        -51.1780    14.9840    -4.1880 hc         1 A1A       0.062033
     38 H12        -49.5460    15.5190    -4.5520 hc         1 A1A       0.062033
     39 H13        -50.9170    16.2100    -5.4270 hc         1 A1A       0.062033
     40 H14        -50.0210    13.2710    -5.4780 h1         1 A1A       0.130700
     41 H15        -50.3480    10.5710    -5.0030 hn         1 A1A       0.184000
     42 H2         -52.8190     5.8270    -2.6100 ha         1 A1A       0.136000
     43 C16        -52.0880    11.7260    -2.7280 c3         1 A1A       0.168900
@<TRIPOS>BOND
     1     1    12 1   
     2     1    15 2   
     3     1    28 1   
     4     2    11 ar  
     5     2    17 ar  
     6     2    42 1   
     7     3     8 ar  
     8     3    14 1   
     9     3    23 ar  
    10     4     6 ar  
    11     4    23 ar  
    12     4    24 1   
    13     5     9 1   
    14     5    10 ar  
    15     5    17 ar  
    16     6     7 ar  
    17     6    29 1   
    18     7     8 ar  
    19     7    30 1   
    20     8    31 1   
    21     9    24 1   
    22     9    26 2   
    23    10    25 ar  
    24    10    27 1   
    25    11    25 ar  
    26    11    32 1   
    27    12    14 1   
    28    12    19 1   
    29    13    14 2   
    30    13    15 1   
    31    16    19 1   
    32    16    20 1   
    33    16    21 1   
    34    16    22 1   
    35    17    33 1   
    36    18    19 1   
    37    18    37 1   
    38    18    38 1   
    39    18    39 1   
    40    19    40 1   
    41    24    41 1   
    42    27    43 1   
    43    34    43 1   
    44    35    43 1   
    45    36    43 1   
@<TRIPOS>SUBSTRUCTURE
     1 A1A         1 TEMP              0 ****  ****    0 ROOT
