@<TRIPOS>MOLECULE
A1A
   58    62     1     0     0
SMALL
No Charge or Current Charge


@<TRIPOS>ATOM
      1 C13         -4.0990    -3.1870   -39.3610 cc         1 A1A      -0.305500
      2 C10         -2.9010    -6.6320   -38.3840 ca         1 A1A       0.167900
      3 C11         -2.8460    -5.3350   -38.9240 ca         1 A1A      -0.044000
      4 C12         -4.0200    -4.5490   -38.8450 ca         1 A1A       0.274500
      5 C14         -3.2110    -2.2100   -38.9770 cd         1 A1A      -0.075000
      6 C15         -3.5420    -0.9340   -39.5130 cd         1 A1A      -0.136000
      7 C16         -4.6870    -0.9470   -40.2710 cc         1 A1A      -0.041000
      8 C03        -10.0790    -5.3760   -36.2190 ca         1 A1A      -0.173600
      9 C04         -9.8620    -6.7390   -36.5080 ca         1 A1A      -0.043000
     10 C05         -8.5770    -7.2020   -36.8400 ca         1 A1A      -0.163000
     11 C06         -7.4870    -6.3200   -36.8840 ca         1 A1A       0.333000
     12 C08         -5.0840    -6.2930   -37.7900 ca         1 A1A       0.403900
     13 C21         -7.6900    -4.9690   -36.5530 ca         1 A1A      -0.163000
     14 C22         -8.9720    -4.4990   -36.2200 ca         1 A1A      -0.043000
     15 C24        -13.0420    -2.9550   -35.5140 c6         1 A1A       0.092000
     16 C25        -14.2240    -2.8930   -36.5070 c6         1 A1A      -0.103900
     17 C26        -13.8400    -2.1330   -37.8090 c6         1 A1A       0.178500
     18 C27        -12.5580    -2.7880   -38.4000 c6         1 A1A      -0.103900
     19 C28        -11.4110    -2.8720   -37.3670 c6         1 A1A       0.092000
     20 C30        -16.2500    -1.5110   -38.3730 c5         1 A1A       0.144800
     21 C31        -15.9440     0.0080   -38.5030 c5         1 A1A      -0.112900
     22 C32        -14.9120     0.0720   -39.6740 c5         1 A1A      -0.112900
     23 C33        -14.7420    -1.4180   -40.0870 c5         1 A1A       0.144800
     24 N07         -6.2260    -6.8290   -37.2130 nu         1 A1A      -0.922900
     25 N09         -4.0220    -7.1150   -37.8140 nb         1 A1A      -0.232000
     26 N19         -5.1400    -5.0430   -38.2820 nb         1 A1A      -0.264000
     27 N23        -11.8370    -3.5690   -36.1240 n          1 A1A      -0.397800
     28 N29        -14.9690    -2.1380   -38.8030 n3         1 A1A      -0.693600
     29 O01        -12.2210    -5.6480   -35.2220 o          1 A1A      -0.594100
     30 S17         -5.4220    -2.5490   -40.3340 ss         1 A1A       0.329000
     31 Cl18        -5.3880     0.4290   -41.0640 cl         1 A1A      -0.139000
     32 H1          -2.0400    -7.2970   -38.4150 h4         1 A1A       0.039100
     33 H2          -2.3550    -2.3820   -38.3290 ha         1 A1A       0.147000
     34 H3          -2.9560    -0.0380   -39.3330 ha         1 A1A       0.149000
     35 H4         -10.6930    -7.4420   -36.4870 ha         1 A1A       0.126000
     36 H5          -8.4340    -8.2540   -37.0730 ha         1 A1A       0.131000
     37 H6          -6.8560    -4.2770   -36.5260 ha         1 A1A       0.131000
     38 H7          -9.0940    -3.4540   -35.9410 ha         1 A1A       0.126000
     39 H9         -13.3450    -3.5090   -34.6140 h1         1 A1A       0.057200
     40 H10        -15.0620    -2.4020   -35.9990 hc         1 A1A       0.056950
     41 H11        -14.5520    -3.9120   -36.7510 hc         1 A1A       0.056950
     42 H12        -13.5870    -1.1000   -37.5290 h1         1 A1A       0.023700
     43 H13        -12.7930    -3.7970   -38.7650 hc         1 A1A       0.056950
     44 H14        -12.1900    -2.2190   -39.2620 hc         1 A1A       0.056950
     45 H15        -10.5660    -3.3850   -37.8420 h1         1 A1A       0.057200
     46 H16        -11.0740    -1.8570   -37.1080 h1         1 A1A       0.057200
     47 H17        -17.0650    -1.7940   -39.0550 h1         1 A1A       0.054700
     48 H18        -16.5760    -1.7890   -37.3630 h1         1 A1A       0.054700
     49 H19        -15.5140     0.4080   -37.5770 hc         1 A1A       0.045700
     50 H20        -16.8510     0.5860   -38.7110 hc         1 A1A       0.045700
     51 H21        -13.9620     0.5030   -39.3390 hc         1 A1A       0.045700
     52 H22        -15.2660     0.6850   -40.5110 hc         1 A1A       0.045700
     53 H23        -15.5070    -1.6980   -40.8260 h1         1 A1A       0.054700
     54 H24        -13.7700    -1.6160   -40.5540 h1         1 A1A       0.054700
     55 H25         -6.1480    -7.8360   -37.0790 hn         1 A1A       0.516000
     56 Cl20        -1.3630    -4.7740   -39.7040 cl         1 A1A      -0.163000
     57 C02        -11.4680    -4.9060   -35.8420 c          1 A1A       0.618700
     58 H8         -12.7910    -1.9350   -35.1890 h1         1 A1A       0.057200
@<TRIPOS>BOND
     1     1     4 1   
     2     1     5 2   
     3     1    30 1   
     4     2     3 ar  
     5     2    25 ar  
     6     2    32 1   
     7     3     4 ar  
     8     3    56 1   
     9     4    26 ar  
    10     5     6 1   
    11     5    33 1   
    12     6     7 2   
    13     6    34 1   
    14     7    30 1   
    15     7    31 1   
    16     8     9 ar  
    17     8    14 ar  
    18     8    57 1   
    19     9    10 ar  
    20     9    35 1   
    21    10    11 ar  
    22    10    36 1   
    23    11    13 ar  
    24    11    24 1   
    25    12    24 1   
    26    12    25 ar  
    27    12    26 ar  
    28    13    14 ar  
    29    13    37 1   
    30    14    38 1   
    31    15    16 1   
    32    15    27 1   
    33    15    39 1   
    34    15    58 1   
    35    16    17 1   
    36    16    40 1   
    37    16    41 1   
    38    17    18 1   
    39    17    28 1   
    40    17    42 1   
    41    18    19 1   
    42    18    43 1   
    43    18    44 1   
    44    19    27 1   
    45    19    45 1   
    46    19    46 1   
    47    20    21 1   
    48    20    28 1   
    49    20    47 1   
    50    20    48 1   
    51    21    22 1   
    52    21    49 1   
    53    21    50 1   
    54    22    23 1   
    55    22    51 1   
    56    22    52 1   
    57    23    28 1   
    58    23    53 1   
    59    23    54 1   
    60    24    55 1   
    61    27    57 1   
    62    29    57 2   
@<TRIPOS>SUBSTRUCTURE
     1 A1A         1 TEMP              0 ****  ****    0 ROOT
