@<TRIPOS>MOLECULE
A1A
   58    62     1     0     0
SMALL
abcg2


@<TRIPOS>ATOM
      1 C13         -3.5350    -3.3080   -38.7080 cc         1 A1A      -0.305500
      2 C10         -3.2030    -7.0580   -38.7190 ca         1 A1A       0.167900
      3 C11         -2.7940    -5.7370   -38.8790 ca         1 A1A      -0.044000
      4 C12         -3.7290    -4.7440   -38.5960 ca         1 A1A       0.274500
      5 C14         -2.4420    -2.5240   -38.9730 cd         1 A1A      -0.075000
      6 C15         -2.7290    -1.1400   -38.9690 cd         1 A1A      -0.136000
      7 C16         -4.0420    -0.9030   -38.6990 cc         1 A1A      -0.041000
      8 C03         -9.9680    -4.8060   -36.3990 ca         1 A1A      -0.173600
      9 C04         -9.9130    -6.1890   -36.5580 ca         1 A1A      -0.043000
     10 C05         -8.7570    -6.8040   -36.9910 ca         1 A1A      -0.163000
     11 C06         -7.5980    -6.0600   -37.2460 ca         1 A1A       0.333000
     12 C08         -5.2450    -6.3800   -38.0590 ca         1 A1A       0.403900
     13 C21         -7.6390    -4.6770   -37.0590 ca         1 A1A      -0.163000
     14 C22         -8.8160    -4.0700   -36.6490 ca         1 A1A      -0.043000
     15 C24        -12.7340    -2.3050   -35.7650 c6         1 A1A       0.092000
     16 C25        -14.0430    -2.5380   -36.5080 c6         1 A1A      -0.103900
     17 C26        -13.9050    -2.1450   -37.9770 c6         1 A1A       0.178500
     18 C27        -12.6960    -2.8730   -38.5670 c6         1 A1A      -0.103900
     19 C28        -11.4220    -2.6410   -37.7640 c6         1 A1A       0.092000
     20 C30        -16.3750    -2.1110   -38.1750 c5         1 A1A       0.144800
     21 C31        -16.5500    -0.5980   -38.3810 c5         1 A1A      -0.112900
     22 C32        -15.7600    -0.3280   -39.6750 c5         1 A1A      -0.112900
     23 C33        -15.1340    -1.6980   -40.0190 c5         1 A1A       0.144800
     24 N07         -6.4780    -6.7760   -37.6450 nu         1 A1A      -0.922900
     25 N09         -4.4050    -7.3920   -38.3150 nb         1 A1A      -0.232000
     26 N19         -4.9520    -5.0990   -38.1890 nb         1 A1A      -0.264000
     27 N23        -11.6240    -3.0170   -36.3730 n          1 A1A      -0.397800
     28 N29        -15.0930    -2.4660   -38.7740 n3         1 A1A      -0.693600
     29 O01        -11.7510    -4.7100   -34.8730 o          1 A1A      -0.594100
     30 S17         -4.9450    -2.3340   -38.4440 ss         1 A1A       0.329000
     31 CL18        -4.8030     0.6190   -38.6020 cl         1 A1A      -0.139000
     32 H1          -2.5100    -7.8640   -38.9340 h4         1 A1A       0.039100
     33 H2          -1.4490    -2.9000   -39.1570 ha         1 A1A       0.147000
     34 H3          -1.9980    -0.3670   -39.1560 ha         1 A1A       0.149000
     35 H4         -10.7870    -6.7940   -36.3530 ha         1 A1A       0.126000
     36 H5          -8.7450    -7.8800   -37.1250 ha         1 A1A       0.131000
     37 H6          -6.7650    -4.0720   -37.2230 ha         1 A1A       0.131000
     38 H7          -8.8140    -2.9970   -36.5050 ha         1 A1A       0.126000
     39 H9         -12.8280    -2.5940   -34.7220 h1         1 A1A       0.057200
     40 H10        -14.8120    -1.9440   -36.0110 hc         1 A1A       0.056950
     41 H11        -14.3390    -3.5890   -36.4260 hc         1 A1A       0.056950
     42 H12        -13.6880    -1.0610   -37.9950 h1         1 A1A       0.023700
     43 H13        -12.9130    -3.9460   -38.5970 hc         1 A1A       0.056950
     44 H14        -12.5130    -2.5550   -39.5950 hc         1 A1A       0.056950
     45 H15        -10.6080    -3.2140   -38.1980 h1         1 A1A       0.057200
     46 H16        -11.1310    -1.5870   -37.8040 h1         1 A1A       0.057200
     47 H17        -17.1550    -2.6460   -38.7270 h1         1 A1A       0.054700
     48 H18        -16.4580    -2.4290   -37.1380 h1         1 A1A       0.054700
     49 H19        -16.1290    -0.0430   -37.5400 hc         1 A1A       0.045700
     50 H20        -17.6000    -0.3130   -38.4570 hc         1 A1A       0.045700
     51 H21        -14.9900     0.4280   -39.5170 hc         1 A1A       0.045700
     52 H22        -16.3950     0.0300   -40.4860 hc         1 A1A       0.045700
     53 H23        -15.7700    -2.2290   -40.7330 h1         1 A1A       0.054700
     54 H24        -14.1490    -1.6120   -40.4770 h1         1 A1A       0.054700
     55 H25         -6.5810    -7.7800   -37.6340 hn         1 A1A       0.516000
     56 CL20        -1.1900    -5.4430   -39.4250 cl         1 A1A      -0.163000
     57 C02        -11.2000    -4.1840   -35.8320 c          1 A1A       0.618700
     58 H8         -12.4910    -1.2380   -35.7870 h1         1 A1A       0.057200
@<TRIPOS>BOND
     1     1     4 1   
     2     1     5 2   
     3     1    30 1   
     4     2     3 ar  
     5     2    25 ar  
     6     2    32 1   
     7     3     4 ar  
     8     3    56 1   
     9     4    26 ar  
    10     5     6 1   
    11     5    33 1   
    12     6     7 2   
    13     6    34 1   
    14     7    30 1   
    15     7    31 1   
    16     8     9 ar  
    17     8    14 ar  
    18     8    57 1   
    19     9    10 ar  
    20     9    35 1   
    21    10    11 ar  
    22    10    36 1   
    23    11    13 ar  
    24    11    24 1   
    25    12    24 1   
    26    12    25 ar  
    27    12    26 ar  
    28    13    14 ar  
    29    13    37 1   
    30    14    38 1   
    31    15    16 1   
    32    15    27 1   
    33    15    39 1   
    34    15    58 1   
    35    16    17 1   
    36    16    40 1   
    37    16    41 1   
    38    17    18 1   
    39    17    28 1   
    40    17    42 1   
    41    18    19 1   
    42    18    43 1   
    43    18    44 1   
    44    19    27 1   
    45    19    45 1   
    46    19    46 1   
    47    20    21 1   
    48    20    28 1   
    49    20    47 1   
    50    20    48 1   
    51    21    22 1   
    52    21    49 1   
    53    21    50 1   
    54    22    23 1   
    55    22    51 1   
    56    22    52 1   
    57    23    28 1   
    58    23    53 1   
    59    23    54 1   
    60    24    55 1   
    61    27    57 1   
    62    29    57 2   
@<TRIPOS>SUBSTRUCTURE
     1 A1A         1 TEMP              0 ****  ****    0 ROOT
