@<TRIPOS>MOLECULE
A1C
   50    52     1     0     0
SMALL
bcc


@<TRIPOS>ATOM
      1 C1           2.9400    -0.1840     0.4150 ca         1 A1C      -0.076300
      2 C2           4.2270     0.3360     0.4800 ca         1 A1C      -0.100000
      3 C3           2.7710    -1.5530     0.2500 ca         1 A1C      -0.097000
      4 C4           1.7580     0.7290     0.4920 c3         1 A1C      -0.167300
      5 C5           5.3160    -0.5150     0.4000 ca         1 A1C       0.026400
      6 C6           5.1760    -1.8940     0.2450 ca         1 A1C      -0.052300
      7 C7           3.8750    -2.3870     0.1730 ca         1 A1C      -0.122000
      8 C8          -4.6040    -2.6060    -0.6750 c3         1 A1C      -0.096400
      9 C9          -5.4250    -1.3240    -0.6800 c3         1 A1C       0.088000
     10 C10         -1.2600     1.5870    -0.6720 ca         1 A1C       0.066600
     11 C11         -1.9750     0.9440    -1.6710 ca         1 A1C      -0.061000
     12 C12         -1.7730     1.6090     0.6200 ca         1 A1C      -0.124000
     13 C13         -2.9740     0.9930     0.9240 ca         1 A1C      -0.117300
     14 C14         -3.6930     0.3370    -0.0830 ca         1 A1C       0.091600
     15 C15         -3.5380     0.9890     2.3100 c6         1 A1C      -0.026100
     16 C16         -3.1760     0.3210    -1.3780 ca         1 A1C      -0.160000
     17 C17          6.3560    -2.8110     0.1680 c3         1 A1C      -0.049800
     18 C18         -5.0490     1.0920     2.2240 c6         1 A1C      -0.160400
     19 C19         -5.6240     0.0040     1.3540 c          1 A1C       0.713500
     20 C20         -5.1920    -3.6350    -1.6290 c3         1 A1C      -0.089100
     21 CL           6.9060     0.1720     0.4950 cl         1 A1C      -0.109400
     22 N1          -4.9050    -0.3060     0.2280 n          1 A1C      -0.383000
     23 N2          -0.0350     2.2330    -0.9860 nu         1 A1C      -0.684500
     24 O1           2.3840     2.2410    -1.5880 o          1 A1C      -0.588300
     25 O2          -6.6740    -0.5500     1.6240 o          1 A1C      -0.609500
     26 O3           1.0090     0.1730    -1.9780 o          1 A1C      -0.588300
     27 S            1.3440     1.3240    -1.1580 s6         1 A1C       1.203900
     28 H1           4.3800     1.4000     0.6070 ha         1 A1C       0.154000
     29 H2           1.7760    -1.9740     0.1940 ha         1 A1C       0.142000
     30 H3           0.8750     0.2200     0.8810 h1         1 A1C       0.096700
     31 H4           1.9510     1.6120     1.1030 h1         1 A1C       0.096700
     32 H5           3.7280    -3.4530     0.0560 ha         1 A1C       0.138000
     33 H6          -3.5670    -2.3980    -0.9540 hc         1 A1C       0.049700
     34 H7          -4.5780    -3.0070     0.3420 hc         1 A1C       0.049700
     35 H8          -5.4970    -0.9140    -1.6890 h1         1 A1C       0.064200
     36 H9          -6.4450    -1.5420    -0.3740 h1         1 A1C       0.064200
     37 H10         -1.6070     0.9390    -2.6870 ha         1 A1C       0.162000
     38 H11         -1.2270     2.1120     1.4100 ha         1 A1C       0.130000
     39 H12         -3.2560     0.0640     2.8230 hc         1 A1C       0.060200
     40 H13         -3.1290     1.8120     2.8970 hc         1 A1C       0.060200
     41 H14         -3.7030    -0.1660    -2.1850 ha         1 A1C       0.149000
     42 H15          6.9870    -2.7260     1.0530 hc         1 A1C       0.050700
     43 H16          6.0320    -3.8470     0.0840 hc         1 A1C       0.050700
     44 H17          6.9840    -2.5850    -0.6960 hc         1 A1C       0.050700
     45 H18         -5.5150     1.0250     3.2060 hc         1 A1C       0.079200
     46 H19         -5.3330     2.0580     1.7920 hc         1 A1C       0.079200
     47 H20         -6.2190    -3.8860    -1.3580 hc         1 A1C       0.036367
     48 H21         -5.2020    -3.2630    -2.6550 hc         1 A1C       0.036367
     49 H22         -4.6110    -4.5570    -1.6200 hc         1 A1C       0.036367
     50 H23          0.1410     3.1030    -0.4940 hn         1 A1C       0.433800
@<TRIPOS>BOND
     1     1     2 ar  
     2     1     3 ar  
     3     1     4 1   
     4     2     5 ar  
     5     2    28 1   
     6     3     7 ar  
     7     3    29 1   
     8     4    27 1   
     9     4    30 1   
    10     4    31 1   
    11     5     6 ar  
    12     5    21 1   
    13     6     7 ar  
    14     6    17 1   
    15     7    32 1   
    16     8     9 1   
    17     8    20 1   
    18     8    33 1   
    19     8    34 1   
    20     9    22 1   
    21     9    35 1   
    22     9    36 1   
    23    10    11 ar  
    24    10    12 ar  
    25    10    23 1   
    26    11    16 ar  
    27    11    37 1   
    28    12    13 ar  
    29    12    38 1   
    30    13    14 ar  
    31    13    15 1   
    32    14    16 ar  
    33    14    22 1   
    34    15    18 1   
    35    15    39 1   
    36    15    40 1   
    37    16    41 1   
    38    17    42 1   
    39    17    43 1   
    40    17    44 1   
    41    18    19 1   
    42    18    45 1   
    43    18    46 1   
    44    19    22 1   
    45    19    25 2   
    46    20    47 1   
    47    20    48 1   
    48    20    49 1   
    49    23    27 1   
    50    23    50 1   
    51    24    27 2   
    52    26    27 2   
@<TRIPOS>SUBSTRUCTURE
     1 A1C         1 TEMP              0 ****  ****    0 ROOT
