@<TRIPOS>MOLECULE
A1C
   50    52     1     0     0
SMALL
No Charge or Current Charge


@<TRIPOS>ATOM
      1 C1           3.0970    -0.6580     0.0820 ca         1 A1C      -0.076300
      2 C2           4.2270    -0.4220     0.8860 ca         1 A1C      -0.082000
      3 C3           3.1990    -1.5390    -1.0090 ca         1 A1C      -0.079000
      4 C4           1.7750     0.0320     0.3910 c3         1 A1C      -0.278100
      5 C5           5.4480    -1.0570     0.6030 ca         1 A1C       0.118000
      6 C6           5.5540    -1.9420    -0.4930 ca         1 A1C      -0.052300
      7 C7           4.4190    -2.1770    -1.2950 ca         1 A1C      -0.104000
      8 C8          -4.7430    -2.6810     0.1890 c3         1 A1C      -0.096400
      9 C9          -5.3430    -1.5310    -0.6490 c3         1 A1C       0.088000
     10 C10         -1.1770     1.5610     0.0180 ca         1 A1C       0.205000
     11 C11         -1.4920     0.5580    -0.9180 ca         1 A1C      -0.043000
     12 C12         -2.1750     1.9860     0.9090 ca         1 A1C      -0.106000
     13 C13         -3.4560     1.4010     0.8940 ca         1 A1C      -0.117300
     14 C14         -3.7490     0.3310     0.0170 ca         1 A1C      -0.001000
     15 C15         -4.5270     1.9160     1.8510 c6         1 A1C      -0.026100
     16 C16         -2.7670    -0.0340    -0.9330 ca         1 A1C      -0.142000
     17 C17          6.8700    -2.6410    -0.8180 c3         1 A1C      -0.049800
     18 C18         -5.9120     1.8490     1.1850 c6         1 A1C      -0.160400
     19 C19         -6.1840     0.4620     0.5980 c          1 A1C       0.571000
     20 C20         -5.0000    -4.0700    -0.4270 c3         1 A1C      -0.089100
     21 Cl           6.8360    -0.7250     1.6410 cl         1 A1C      -0.201000
     22 N1          -5.1030    -0.1870    -0.0540 n          1 A1C      -0.223400
     23 N2           0.0760     2.1800     0.0820 nu         1 A1C      -0.878100
     24 O1           2.5230     2.5800     0.1390 o          1 A1C      -0.517500
     25 O2          -7.2920    -0.0460     0.7190 o          1 A1C      -0.534000
     26 O3           1.4670     1.4360    -1.8710 o          1 A1C      -0.517500
     27 S            1.5640     1.6260    -0.4220 s6         1 A1C       1.173100
     28 H1           4.1620     0.2570     1.7330 ha         1 A1C       0.136000
     29 H2           2.3330    -1.7310    -1.6390 ha         1 A1C       0.124000
     30 H3           0.9330    -0.5900     0.0700 h1         1 A1C       0.096700
     31 H4           1.6810     0.2250     1.4650 h1         1 A1C       0.096700
     32 H5           4.4790    -2.8550    -2.1440 ha         1 A1C       0.120000
     33 H6          -3.6620    -2.5340     0.2960 hc         1 A1C       0.049700
     34 H7          -5.1710    -2.6510     1.1980 hc         1 A1C       0.049700
     35 H8          -4.9310    -1.5580    -1.6650 h1         1 A1C       0.064200
     36 H9          -6.4190    -1.7080    -0.7640 h1         1 A1C       0.064200
     37 H10         -0.7620     0.2350    -1.6530 ha         1 A1C       0.144000
     38 H11         -1.9590     2.7850     1.6130 ha         1 A1C       0.112000
     39 H12         -4.5230     1.3100     2.7670 hc         1 A1C       0.060200
     40 H13         -4.3130     2.9500     2.1560 hc         1 A1C       0.060200
     41 H14         -2.9670    -0.7860    -1.6890 ha         1 A1C       0.131000
     42 H15          7.2010    -3.2660     0.0200 hc         1 A1C       0.050700
     43 H16          6.7810    -3.2910    -1.6960 hc         1 A1C       0.050700
     44 H17          7.6610    -1.9120    -1.0280 hc         1 A1C       0.050700
     45 H18         -6.7310     2.1620     1.8460 hc         1 A1C       0.079200
     46 H19         -5.8670     2.5360     0.3300 hc         1 A1C       0.079200
     47 H20         -6.0760    -4.2640    -0.5130 hc         1 A1C       0.036367
     48 H21         -4.5530    -4.1400    -1.4260 hc         1 A1C       0.036367
     49 H22         -4.5590    -4.8540     0.2010 hc         1 A1C       0.036367
     50 H23          0.2590     2.8170     0.8460 hn         1 A1C       0.489000
@<TRIPOS>BOND
     1     1     2 ar  
     2     1     3 ar  
     3     1     4 1   
     4     2     5 ar  
     5     2    28 1   
     6     3     7 ar  
     7     3    29 1   
     8     4    27 1   
     9     4    30 1   
    10     4    31 1   
    11     5     6 ar  
    12     5    21 1   
    13     6     7 ar  
    14     6    17 1   
    15     7    32 1   
    16     8     9 1   
    17     8    20 1   
    18     8    33 1   
    19     8    34 1   
    20     9    22 1   
    21     9    35 1   
    22     9    36 1   
    23    10    11 ar  
    24    10    12 ar  
    25    10    23 1   
    26    11    16 ar  
    27    11    37 1   
    28    12    13 ar  
    29    12    38 1   
    30    13    14 ar  
    31    13    15 1   
    32    14    16 ar  
    33    14    22 1   
    34    15    18 1   
    35    15    39 1   
    36    15    40 1   
    37    16    41 1   
    38    17    42 1   
    39    17    43 1   
    40    17    44 1   
    41    18    19 1   
    42    18    45 1   
    43    18    46 1   
    44    19    22 1   
    45    19    25 2   
    46    20    47 1   
    47    20    48 1   
    48    20    49 1   
    49    23    27 1   
    50    23    50 1   
    51    24    27 2   
    52    26    27 2   
@<TRIPOS>SUBSTRUCTURE
     1 A1C         1 TEMP              0 ****  ****    0 ROOT
