@<TRIPOS>MOLECULE
A1D
   45    48     1     0     0
SMALL
No Charge or Current Charge


@<TRIPOS>ATOM
      1 C01        -14.4990    -2.9060    41.4940 c3         1 A1D      -0.090100
      2 C02        -14.6160    -4.3170    40.8830 c3         1 A1D      -0.081400
      3 C03        -14.2540    -4.3560    39.3850 c3         1 A1D       0.163600
      4 O04        -14.4010    -5.7140    38.9370 os         1 A1D      -0.348100
      5 C05        -14.1500    -6.0880    37.6330 ca         1 A1D       0.161100
      6 C06        -14.3190    -7.4380    37.2930 ca         1 A1D      -0.177000
      7 C07        -14.0770    -7.8790    35.9820 ca         1 A1D      -0.050000
      8 C08        -13.6640    -6.9730    34.9850 ca         1 A1D      -0.143300
      9 C09        -13.4910    -5.6140    35.3320 ca         1 A1D      -0.050000
     10 C10        -13.7330    -5.1720    36.6450 ca         1 A1D      -0.177000
     11 C11        -13.3950    -7.4870    33.5650 c5         1 A1D       0.159000
     12 C12        -14.2630    -6.6510    32.5500 c5         1 A1D       0.076000
     13 N13        -13.2490    -5.9160    31.7890 ns         1 A1D      -0.494900
     14 C14        -11.9770    -6.2160    32.1610 c          1 A1D       0.592000
     15 O15        -10.9910    -5.7550    31.6100 o          1 A1D      -0.555000
     16 N16        -12.0060    -7.1200    33.2210 n          1 A1D      -0.253400
     17 C17        -10.8630    -7.6540    33.9270 ca         1 A1D      -0.005000
     18 C18         -9.6310    -6.9470    33.9900 ca         1 A1D      -0.113000
     19 C19         -8.4790    -7.5350    34.5550 ca         1 A1D      -0.041000
     20 C20         -8.5550    -8.8560    35.0130 ca         1 A1D       0.065400
     21 N21         -7.5540    -9.6220    35.5830 nc         1 A1D      -0.571100
     22 C22         -8.1740   -10.8010    35.8010 cd         1 A1D       0.414700
     23 N23         -9.5150   -10.8140    35.3890 na         1 A1D      -0.317600
     24 C24         -9.7180    -9.5550    34.9000 ca         1 A1D      -0.075200
     25 C25        -10.8810    -9.0080    34.3450 ca         1 A1D      -0.130000
     26 H011       -14.7660    -2.9270    42.5570 hc         1 A1D       0.036700
     27 H012       -13.4730    -2.5290    41.4040 hc         1 A1D       0.036700
     28 H013       -15.1720    -2.2060    40.9850 hc         1 A1D       0.036700
     29 H022       -15.6430    -4.6810    41.0150 hc         1 A1D       0.055200
     30 H021       -13.9570    -5.0010    41.4310 hc         1 A1D       0.055200
     31 H032       -13.2200    -4.0130    39.2490 h1         1 A1D       0.035200
     32 H031       -14.9250    -3.6890    38.8280 h1         1 A1D       0.035200
     33 H061       -14.6380    -8.1470    38.0520 ha         1 A1D       0.124000
     34 H071       -14.2100    -8.9320    35.7400 ha         1 A1D       0.114000
     35 H091       -13.1630    -4.8950    34.5850 ha         1 A1D       0.114000
     36 H101       -13.5890    -4.1210    36.8740 ha         1 A1D       0.124000
     37 H111       -13.5800    -8.5630    33.4610 h1         1 A1D       0.052700
     38 H121       -14.9680    -5.9780    33.0550 h1         1 A1D       0.053200
     39 H122       -14.8460    -7.3160    31.8990 h1         1 A1D       0.053200
     40 H131       -13.4080    -5.2840    31.0130 hn         1 A1D       0.324500
     41 H181        -9.5650    -5.9220    33.6360 ha         1 A1D       0.125000
     42 H191        -7.5480    -6.9780    34.6260 ha         1 A1D       0.131000
     43 H221        -7.7190   -11.6800    36.2440 h5         1 A1D       0.060800
     44 H231       -10.1660   -11.5870    35.4540 hn         1 A1D       0.356000
     45 H251       -11.7730    -9.6200    34.2470 ha         1 A1D       0.119000
@<TRIPOS>BOND
     1     1     2 1   
     2     1    26 1   
     3     1    27 1   
     4     1    28 1   
     5     2     3 1   
     6     2    29 1   
     7     2    30 1   
     8     3     4 1   
     9     3    31 1   
    10     3    32 1   
    11     4     5 1   
    12     5     6 ar  
    13     5    10 ar  
    14     6     7 ar  
    15     6    33 1   
    16     7     8 ar  
    17     7    34 1   
    18     8     9 ar  
    19     8    11 1   
    20     9    10 ar  
    21     9    35 1   
    22    10    36 1   
    23    11    12 1   
    24    11    16 1   
    25    11    37 1   
    26    12    13 1   
    27    12    38 1   
    28    12    39 1   
    29    13    14 1   
    30    13    40 1   
    31    14    15 2   
    32    14    16 1   
    33    16    17 1   
    34    17    18 ar  
    35    17    25 ar  
    36    18    19 ar  
    37    18    41 1   
    38    19    20 ar  
    39    19    42 1   
    40    20    21 1   
    41    20    24 ar  
    42    21    22 2   
    43    22    23 1   
    44    22    43 1   
    45    23    24 1   
    46    23    44 1   
    47    24    25 ar  
    48    25    45 1   
@<TRIPOS>SUBSTRUCTURE
     1 A1D         1 TEMP              0 ****  ****    0 ROOT
