@<TRIPOS>MOLECULE
A1D
   45    48     1     0     0
SMALL
abcg2


@<TRIPOS>ATOM
      1 C01        -14.3650    -3.0060    41.4420 c3         1 A1D      -0.090100
      2 C02        -14.5950    -4.3990    40.8720 c3         1 A1D      -0.081400
      3 C03        -14.1670    -4.4740    39.4210 c3         1 A1D       0.163600
      4 O04        -14.4170    -5.7880    38.9480 os         1 A1D      -0.348100
      5 C05        -14.1430    -6.0870    37.6660 ca         1 A1D       0.161100
      6 C06        -14.4450    -7.3850    37.2520 ca         1 A1D      -0.177000
      7 C07        -14.1950    -7.7740    35.9480 ca         1 A1D      -0.050000
      8 C08        -13.6530    -6.8900    35.0220 ca         1 A1D      -0.143300
      9 C09        -13.3470    -5.6030    35.4460 ca         1 A1D      -0.050000
     10 C10        -13.5860    -5.1940    36.7500 ca         1 A1D      -0.177000
     11 C11        -13.3970    -7.3250    33.6070 c5         1 A1D       0.159000
     12 C12        -14.1730    -6.5380    32.5410 c5         1 A1D       0.076000
     13 N13        -13.2530    -6.5630    31.4250 ns         1 A1D      -0.494900
     14 C14        -11.9680    -6.7200    31.8560 c          1 A1D       0.592000
     15 O15        -10.9550    -6.5850    31.1970 o          1 A1D      -0.555000
     16 N16        -12.0240    -7.0820    33.1810 n          1 A1D      -0.253400
     17 C17        -10.9190    -7.6370    33.8610 ca         1 A1D      -0.005000
     18 C18         -9.9130    -6.7760    34.3310 ca         1 A1D      -0.113000
     19 C19         -8.8150    -7.2560    35.0160 ca         1 A1D      -0.041000
     20 C20         -8.7320    -8.6290    35.2490 ca         1 A1D       0.065400
     21 N21         -7.7730    -9.3660    35.9030 nc         1 A1D      -0.571100
     22 C22         -8.1950   -10.5970    35.8310 cd         1 A1D       0.414700
     23 N23         -9.3720   -10.7270    35.1730 na         1 A1D      -0.317600
     24 C24         -9.7530    -9.4730    34.7810 ca         1 A1D      -0.075200
     25 C25        -10.8540    -9.0040    34.0770 ca         1 A1D      -0.130000
     26 H011       -14.6790    -2.9570    42.4840 hc         1 A1D       0.036700
     27 H012       -13.3110    -2.7260    41.4010 hc         1 A1D       0.036700
     28 H013       -14.9300    -2.2530    40.8920 hc         1 A1D       0.036700
     29 H022       -15.6520    -4.6630    40.9520 hc         1 A1D       0.055200
     30 H021       -14.0360    -5.1360    41.4550 hc         1 A1D       0.055200
     31 H032       -13.1020    -4.2300    39.3270 h1         1 A1D       0.035200
     32 H031       -14.7260    -3.7420    38.8260 h1         1 A1D       0.035200
     33 H061       -14.8710    -8.0850    37.9610 ha         1 A1D       0.124000
     34 H071       -14.4310    -8.7880    35.6460 ha         1 A1D       0.114000
     35 H091       -12.9080    -4.8950    34.7530 ha         1 A1D       0.114000
     36 H101       -13.3310    -4.1820    37.0330 ha         1 A1D       0.124000
     37 H111       -13.6430    -8.3910    33.5150 h1         1 A1D       0.052700
     38 H121       -14.3750    -5.5160    32.8760 h1         1 A1D       0.053200
     39 H122       -15.1220    -7.0150    32.3040 h1         1 A1D       0.053200
     40 H131       -13.4210    -5.9870    30.6150 hn         1 A1D       0.324500
     41 H181       -10.0180    -5.7140    34.1530 ha         1 A1D       0.125000
     42 H191        -8.0440    -6.5850    35.3710 ha         1 A1D       0.131000
     43 H221        -7.6850   -11.4560    36.2420 h5         1 A1D       0.060800
     44 H231        -9.8650   -11.5900    35.0070 hn         1 A1D       0.356000
     45 H251       -11.6250    -9.6720    33.7140 ha         1 A1D       0.119000
@<TRIPOS>BOND
     1     1     2 1   
     2     1    26 1   
     3     1    27 1   
     4     1    28 1   
     5     2     3 1   
     6     2    29 1   
     7     2    30 1   
     8     3     4 1   
     9     3    31 1   
    10     3    32 1   
    11     4     5 1   
    12     5     6 ar  
    13     5    10 ar  
    14     6     7 ar  
    15     6    33 1   
    16     7     8 ar  
    17     7    34 1   
    18     8     9 ar  
    19     8    11 1   
    20     9    10 ar  
    21     9    35 1   
    22    10    36 1   
    23    11    12 1   
    24    11    16 1   
    25    11    37 1   
    26    12    13 1   
    27    12    38 1   
    28    12    39 1   
    29    13    14 1   
    30    13    40 1   
    31    14    15 2   
    32    14    16 1   
    33    16    17 1   
    34    17    18 ar  
    35    17    25 ar  
    36    18    19 ar  
    37    18    41 1   
    38    19    20 ar  
    39    19    42 1   
    40    20    21 1   
    41    20    24 ar  
    42    21    22 2   
    43    22    23 1   
    44    22    43 1   
    45    23    24 1   
    46    23    44 1   
    47    24    25 ar  
    48    25    45 1   
@<TRIPOS>SUBSTRUCTURE
     1 A1D         1 TEMP              0 ****  ****    0 ROOT
