@<TRIPOS>MOLECULE
A1D
   32    35     1     0     0
SMALL
abcg2


@<TRIPOS>ATOM
      1 C10        -20.8570    29.8770    13.5860 ca         1 A1D       0.107600
      2 C13        -18.8380    33.3610    10.8690 ca         1 A1D      -0.107800
      3 C15        -17.4870    34.4410     9.1310 ca         1 A1D      -0.125000
      4 C20        -19.8050    35.1070     9.5540 ca         1 A1D       0.055400
      5 C21        -19.9310    34.1690    10.5720 ca         1 A1D       0.014000
      6 O01        -21.6570    31.7940    10.8370 o          1 A1D      -0.517000
      7 C02        -21.1290    31.2880    11.8060 c          1 A1D       0.568200
      8 C03        -19.7840    31.5540    12.4140 cc         1 A1D      -0.132400
      9 C04        -19.6770    30.6290    13.5380 ca         1 A1D      -0.148800
     10 C05        -18.7000    30.4050    14.5040 ca         1 A1D       0.194100
     11 O06        -17.5750    31.1370    14.4580 oh         1 A1D      -0.532100
     12 C07        -18.9240    29.4320    15.4820 ca         1 A1D      -0.241000
     13 C08        -20.1040    28.7020    15.4910 ca         1 A1D      -0.031000
     14 C09        -21.1010    28.9100    14.5420 ca         1 A1D      -0.188000
     15 N11        -21.6780    30.2800    12.5500 ns         1 A1D      -0.409100
     16 C12        -18.8230    32.3790    11.9480 cf         1 A1D      -0.040200
     17 C14        -17.6250    33.5320    10.1580 ca         1 A1D      -0.074000
     18 C16        -18.6000    35.2240     8.8400 ca         1 A1D      -0.069200
     19 N17        -18.8280    36.2210     7.9360 na         1 A1D      -0.317600
     20 C18        -20.1010    36.6490     8.1280 cc         1 A1D       0.410700
     21 N19        -20.7230    36.0190     9.0810 nd         1 A1D      -0.560100
     22 H1         -16.5540    34.5450     8.5930 ha         1 A1D       0.118000
     23 H2         -20.8510    34.0990    11.1330 ha         1 A1D       0.145000
     24 H3         -16.9860    30.9020    15.1850 ho         1 A1D       0.469000
     25 H4         -18.1700    29.2460    16.2370 ha         1 A1D       0.115000
     26 H5         -20.2500    27.9530    16.2580 ha         1 A1D       0.114000
     27 H6         -22.0210    28.3430    14.5550 ha         1 A1D       0.125000
     28 H7         -22.5860    29.8840    12.3550 hn         1 A1D       0.338500
     29 H8         -17.8580    32.2940    12.4340 ha         1 A1D       0.190000
     30 H9         -16.7760    32.9150    10.4270 ha         1 A1D       0.112000
     31 H10        -18.1800    36.5810     7.2530 hn         1 A1D       0.357000
     32 H11        -20.5220    37.4410     7.5250 h5         1 A1D       0.061800
@<TRIPOS>BOND
     1     1     9 ar  
     2     1    14 ar  
     3     1    15 1   
     4     2     5 ar  
     5     2    16 1   
     6     2    17 ar  
     7     3    17 ar  
     8     3    18 ar  
     9     3    22 1   
    10     4     5 ar  
    11     4    18 ar  
    12     4    21 1   
    13     5    23 1   
    14     6     7 2   
    15     7     8 1   
    16     7    15 1   
    17     8     9 1   
    18     8    16 2   
    19     9    10 ar  
    20    10    11 1   
    21    10    12 ar  
    22    11    24 1   
    23    12    13 ar  
    24    12    25 1   
    25    13    14 ar  
    26    13    26 1   
    27    14    27 1   
    28    15    28 1   
    29    16    29 1   
    30    17    30 1   
    31    18    19 1   
    32    19    20 1   
    33    19    31 1   
    34    20    21 2   
    35    20    32 1   
@<TRIPOS>SUBSTRUCTURE
     1 A1D         1 TEMP              0 ****  ****    0 ROOT
