@<TRIPOS>MOLECULE
A1D
   46    50     1     0     0
SMALL
abcg2


@<TRIPOS>ATOM
      1 C10        -36.2540   -29.5650    59.7070 c6         1 A1D       0.161600
      2 C12        -35.1970   -30.3430    57.7640 c6         1 A1D       0.161600
      3 C13        -35.7570   -29.0760    57.1110 c6         1 A1D      -0.126400
      4 C14        -32.6620   -27.8840    56.3540 ca         1 A1D      -0.162000
      5 C15        -31.9550   -27.3260    55.2970 ca         1 A1D      -0.064000
      6 C16        -32.0060   -25.9620    55.0310 ca         1 A1D      -0.159000
      7 C17        -34.1510   -24.5950    57.6300 cc         1 A1D      -0.141400
      8 C18        -34.7920   -24.6370    58.8160 cf         1 A1D      -0.044200
      9 C19        -35.5580   -23.6290    59.5350 ca         1 A1D      -0.110800
     10 C20        -36.3560   -22.6810    58.9010 ca         1 A1D       0.015000
     11 C21        -37.1150   -21.8240    59.6890 ca         1 A1D       0.054400
     12 C22        -37.0610   -21.9120    61.0910 ca         1 A1D      -0.068200
     13 C24        -38.4350   -20.3400    60.4340 cc         1 A1D       0.411700
     14 C26        -36.2800   -22.8590    61.7460 ca         1 A1D      -0.124000
     15 C27        -35.5540   -23.7160    60.9480 ca         1 A1D      -0.074000
     16 C02        -33.8100   -23.3780    56.8240 c          1 A1D       0.568200
     17 N03        -32.9820   -23.8170    55.8280 ns         1 A1D      -0.409100
     18 C04        -32.7720   -25.1830    55.8760 ca         1 A1D       0.081600
     19 C05        -33.4810   -25.7100    56.9640 ca         1 A1D      -0.138800
     20 C06        -33.4390   -27.0830    57.1910 ca         1 A1D       0.162100
     21 O07        -34.1170   -27.6480    58.2240 os         1 A1D      -0.360100
     22 C08        -35.5230   -27.8610    57.9930 c6         1 A1D       0.181300
     23 C09        -36.2010   -28.0780    59.3450 c6         1 A1D      -0.126400
     24 O11        -35.1490   -30.2570    59.1730 os         1 A1D      -0.438000
     25 N23        -37.9170   -20.9460    61.5320 na         1 A1D      -0.316600
     26 N25        -37.9890   -20.8280    59.3130 nd         1 A1D      -0.560100
     27 H1         -37.1950   -30.0100    59.3560 h1         1 A1D       0.042950
     28 H2         -36.2250   -29.6990    60.7890 h1         1 A1D       0.042950
     29 H3         -35.7960   -31.2090    57.4510 h1         1 A1D       0.042950
     30 H4         -34.1730   -30.5250    57.4320 h1         1 A1D       0.042950
     31 H5         -35.3230   -28.9450    56.1180 hc         1 A1D       0.057200
     32 H6         -36.8360   -29.1600    56.9600 hc         1 A1D       0.057200
     33 H7         -32.6130   -28.9490    56.5390 ha         1 A1D       0.127000
     34 H8         -31.3590   -27.9690    54.6620 ha         1 A1D       0.116000
     35 H9         -31.4630   -25.5290    54.2010 ha         1 A1D       0.123000
     36 H10        -34.7240   -25.5790    59.3490 ha         1 A1D       0.189000
     37 H11        -36.4200   -22.6280    57.8250 ha         1 A1D       0.145000
     38 H12        -39.1460   -19.5320    60.5250 h5         1 A1D       0.062800
     39 H13        -36.2540   -22.9360    62.8250 ha         1 A1D       0.120000
     40 H14        -34.9510   -24.4840    61.4180 ha         1 A1D       0.114000
     41 H15        -32.5730   -23.2010    55.1410 hn         1 A1D       0.338500
     42 H16        -35.9370   -26.9690    57.5100 h1         1 A1D       0.051700
     43 H17        -35.6790   -27.5060    60.1140 hc         1 A1D       0.057200
     44 H18        -37.2170   -27.6810    59.2970 hc         1 A1D       0.057200
     45 H19        -38.1340   -20.7180    62.4900 hn         1 A1D       0.358000
     46 O01        -34.1200   -22.2170    57.0020 o          1 A1D      -0.518000
@<TRIPOS>BOND
     1     1    23 1   
     2     1    24 1   
     3     1    27 1   
     4     1    28 1   
     5     2     3 1   
     6     2    24 1   
     7     2    29 1   
     8     2    30 1   
     9     3    22 1   
    10     3    31 1   
    11     3    32 1   
    12     4     5 ar  
    13     4    20 ar  
    14     4    33 1   
    15     5     6 ar  
    16     5    34 1   
    17     6    18 ar  
    18     6    35 1   
    19     7     8 2   
    20     7    16 1   
    21     7    19 1   
    22     8     9 1   
    23     8    36 1   
    24     9    10 ar  
    25     9    15 ar  
    26    10    11 ar  
    27    10    37 1   
    28    11    12 ar  
    29    11    26 1   
    30    12    14 ar  
    31    12    25 1   
    32    13    25 1   
    33    13    26 2   
    34    13    38 1   
    35    14    15 ar  
    36    14    39 1   
    37    15    40 1   
    38    16    17 1   
    39    16    46 2   
    40    17    18 1   
    41    17    41 1   
    42    18    19 ar  
    43    19    20 ar  
    44    20    21 1   
    45    21    22 1   
    46    22    23 1   
    47    22    42 1   
    48    23    43 1   
    49    23    44 1   
    50    25    45 1   
@<TRIPOS>SUBSTRUCTURE
     1 A1D         1 TEMP              0 ****  ****    0 ROOT
