@<TRIPOS>MOLECULE
A1D
   47    51     1     0     0
SMALL
No Charge or Current Charge


@<TRIPOS>ATOM
      1 O01        -14.5580    -8.9520    24.3050 o          1 A1D      -0.521000
      2 C02        -15.3200    -9.6400    24.9660 c          1 A1D       0.567200
      3 C03        -15.4320   -11.1270    25.1000 cc         1 A1D      -0.130400
      4 C04        -16.6400   -11.3760    25.9180 ca         1 A1D      -0.153800
      5 C05        -17.2480   -12.5620    26.3840 ca         1 A1D       0.209100
      6 O06        -16.7010   -13.7870    26.0500 os         1 A1D      -0.352100
      7 C07        -17.0720   -15.0130    26.7160 c6         1 A1D       0.179300
      8 C08        -16.5540   -15.0360    28.1780 c6         1 A1D      -0.092900
      9 C09        -16.8560   -16.3970    28.8450 c6         1 A1D       0.160800
     10 N10        -16.2920   -17.5150    28.0520 n7         1 A1D      -0.863400
     11 C11        -16.7880   -17.5420    26.6570 c6         1 A1D       0.160800
     12 C12        -16.4820   -16.2100    25.9350 c6         1 A1D      -0.092900
     13 C13        -18.4180   -12.4380    27.1800 ca         1 A1D      -0.237000
     14 C14        -18.9390   -11.1680    27.5190 ca         1 A1D      -0.035000
     15 C15        -18.3020    -9.9980    27.0690 ca         1 A1D      -0.190000
     16 C16        -17.1630   -10.1450    26.2790 ca         1 A1D       0.106600
     17 N17        -16.3580    -9.1680    25.7170 ns         1 A1D      -0.408100
     18 C18        -14.7230   -12.0570    24.3770 cf         1 A1D      -0.043200
     19 C19        -13.4190   -12.0670    23.6770 ca         1 A1D      -0.104800
     20 C20        -13.1400   -13.1330    22.7790 ca         1 A1D      -0.074000
     21 C21        -11.9080   -13.2030    22.0960 ca         1 A1D      -0.126000
     22 C22        -10.9730   -12.1970    22.3490 ca         1 A1D      -0.069200
     23 N23         -9.7180   -12.0190    21.8560 na         1 A1D      -0.318600
     24 C24         -9.2010   -10.8730    22.4580 cc         1 A1D       0.410700
     25 N25        -10.0960   -10.3330    23.3120 nd         1 A1D      -0.560100
     26 C26        -11.2020   -11.1780    23.2240 ca         1 A1D       0.054400
     27 C27        -12.4210   -11.0860    23.9130 ca         1 A1D       0.013000
     28 H2         -18.1660   -15.1150    26.7030 h1         1 A1D       0.041700
     29 H3         -15.4710   -14.8530    28.1910 hc         1 A1D       0.062450
     30 H4         -17.0140   -14.2340    28.7680 hc         1 A1D       0.062450
     31 H5         -17.9450   -16.5270    28.9380 h1         1 A1D       0.032200
     32 H6         -16.4300   -16.4140    29.8590 h1         1 A1D       0.032200
     33 H7         -16.5370   -18.4040    28.5100 hn         1 A1D       0.415000
     34 H9         -17.8740   -17.7200    26.6560 h1         1 A1D       0.032200
     35 H10        -16.3130   -18.3730    26.1140 h1         1 A1D       0.032200
     36 H11        -15.3960   -16.0880    25.8300 hc         1 A1D       0.062450
     37 H12        -16.8980   -16.2350    24.9200 hc         1 A1D       0.062450
     38 H13        -18.9420   -13.3130    27.5490 ha         1 A1D       0.118000
     39 H14        -19.8340   -11.0950    28.1340 ha         1 A1D       0.112000
     40 H15        -18.6850    -9.0140    27.3270 ha         1 A1D       0.123000
     41 H16        -16.5690    -8.1800    25.7780 hn         1 A1D       0.338500
     42 H17        -15.1480   -13.0550    24.4330 ha         1 A1D       0.190000
     43 H19        -13.8860   -13.9040    22.6000 ha         1 A1D       0.111000
     44 H20        -11.6950   -14.0130    21.4020 ha         1 A1D       0.118000
     45 H21         -9.2370   -12.5990    21.1810 hn         1 A1D       0.357000
     46 H22         -8.2060   -10.5000    22.2430 h5         1 A1D       0.060800
     47 H24        -12.5580   -10.2960    24.6420 ha         1 A1D       0.147000
@<TRIPOS>BOND
     1     1     2 2   
     2     2     3 1   
     3     2    17 1   
     4     3     4 1   
     5     3    18 2   
     6     4     5 ar  
     7     4    16 ar  
     8     5     6 1   
     9     5    13 ar  
    10     6     7 1   
    11     7     8 1   
    12     7    12 1   
    13     7    28 1   
    14     8     9 1   
    15     8    29 1   
    16     8    30 1   
    17     9    10 1   
    18     9    31 1   
    19     9    32 1   
    20    10    11 1   
    21    10    33 1   
    22    11    12 1   
    23    11    34 1   
    24    11    35 1   
    25    12    36 1   
    26    12    37 1   
    27    13    14 ar  
    28    13    38 1   
    29    14    15 ar  
    30    14    39 1   
    31    15    16 ar  
    32    15    40 1   
    33    16    17 1   
    34    17    41 1   
    35    18    19 1   
    36    18    42 1   
    37    19    20 ar  
    38    19    27 ar  
    39    20    21 ar  
    40    20    43 1   
    41    21    22 ar  
    42    21    44 1   
    43    22    23 1   
    44    22    26 ar  
    45    23    24 1   
    46    23    45 1   
    47    24    25 2   
    48    24    46 1   
    49    25    26 1   
    50    26    27 ar  
    51    27    47 1   
@<TRIPOS>SUBSTRUCTURE
     1 A1D         1 TEMP              0 ****  ****    0 ROOT
