@<TRIPOS>MOLECULE
A1D
   47    51     1     0     0
SMALL
abcg2


@<TRIPOS>ATOM
      1 O01        -14.6190    -9.0890    24.1270 o          1 A1D      -0.521000
      2 C02        -15.3770    -9.7360    24.8220 c          1 A1D       0.567200
      3 C03        -15.4030   -11.2090    25.1000 cc         1 A1D      -0.130400
      4 C04        -16.5820   -11.4240    25.9380 ca         1 A1D      -0.153800
      5 C05        -17.1450   -12.5590    26.5230 ca         1 A1D       0.209100
      6 O06        -16.5440   -13.7280    26.2600 os         1 A1D      -0.352100
      7 C07        -17.0100   -14.9510    26.8270 c6         1 A1D       0.179300
      8 C08        -16.5250   -15.1330    28.2590 c6         1 A1D      -0.092900
      9 C09        -16.9260   -16.5140    28.7630 c6         1 A1D       0.160800
     10 N10        -16.3770   -17.5350    27.8910 n7         1 A1D      -0.863400
     11 C11        -16.8950   -17.4210    26.5400 c6         1 A1D       0.160800
     12 C12        -16.4970   -16.0760    25.9440 c6         1 A1D      -0.092900
     13 C13        -18.2870   -12.4090    27.3180 ca         1 A1D      -0.237000
     14 C14        -18.8490   -11.1530    27.5080 ca         1 A1D      -0.035000
     15 C15        -18.3100   -10.0090    26.9330 ca         1 A1D      -0.190000
     16 C16        -17.1790   -10.1790    26.1570 ca         1 A1D       0.106600
     17 N17        -16.4530    -9.2140    25.4840 ns         1 A1D      -0.408100
     18 C18        -14.5740   -12.1560    24.6080 cf         1 A1D      -0.043200
     19 C19        -13.3380   -12.0690    23.8380 ca         1 A1D      -0.104800
     20 C20        -13.0640   -13.1630    22.9800 ca         1 A1D      -0.074000
     21 C21        -11.9160   -13.2460    22.2220 ca         1 A1D      -0.126000
     22 C22        -11.0020   -12.2070    22.3630 ca         1 A1D      -0.069200
     23 N23         -9.7770   -11.9620    21.8130 na         1 A1D      -0.318600
     24 C24         -9.3270   -10.7980    22.3470 cc         1 A1D       0.410700
     25 N25        -10.1530   -10.2640    23.1980 nd         1 A1D      -0.560100
     26 C26        -11.2260   -11.1260    23.2330 ca         1 A1D       0.054400
     27 C27        -12.3990   -11.0500    23.9740 ca         1 A1D       0.013000
     28 H2         -18.1070   -14.9760    26.8050 h1         1 A1D       0.041700
     29 H3         -15.4360   -15.0370    28.2850 hc         1 A1D       0.062450
     30 H4         -16.9400   -14.3680    28.9190 hc         1 A1D       0.062450
     31 H5         -18.0250   -16.5630    28.8340 h1         1 A1D       0.032200
     32 H6         -16.5390   -16.6610    29.7730 h1         1 A1D       0.032200
     33 H7         -16.5930   -18.4510    28.2620 hn         1 A1D       0.415000
     34 H9         -17.9920   -17.5170    26.4970 h1         1 A1D       0.032200
     35 H10        -16.4840   -18.2280    25.9300 h1         1 A1D       0.032200
     36 H11        -15.4070   -16.0170    25.8680 hc         1 A1D       0.062450
     37 H12        -16.9070   -15.9810    24.9360 hc         1 A1D       0.062450
     38 H13        -18.7520   -13.2600    27.7940 ha         1 A1D       0.118000
     39 H14        -19.7330   -11.0690    28.1260 ha         1 A1D       0.112000
     40 H15        -18.7530    -9.0340    27.0870 ha         1 A1D       0.123000
     41 H16        -16.6940    -8.2350    25.4570 hn         1 A1D       0.338500
     42 H17        -14.8730   -13.1770    24.8060 ha         1 A1D       0.190000
     43 H19        -13.7910   -13.9630    22.9130 ha         1 A1D       0.111000
     44 H20        -11.7340   -14.0860    21.5650 ha         1 A1D       0.118000
     45 H21         -9.2920   -12.5320    21.1380 hn         1 A1D       0.357000
     46 H22         -8.3680   -10.3870    22.0650 h5         1 A1D       0.060800
     47 H24        -12.5550   -10.2300    24.6580 ha         1 A1D       0.147000
@<TRIPOS>BOND
     1     1     2 2   
     2     2     3 1   
     3     2    17 1   
     4     3     4 1   
     5     3    18 2   
     6     4     5 ar  
     7     4    16 ar  
     8     5     6 1   
     9     5    13 ar  
    10     6     7 1   
    11     7     8 1   
    12     7    12 1   
    13     7    28 1   
    14     8     9 1   
    15     8    29 1   
    16     8    30 1   
    17     9    10 1   
    18     9    31 1   
    19     9    32 1   
    20    10    11 1   
    21    10    33 1   
    22    11    12 1   
    23    11    34 1   
    24    11    35 1   
    25    12    36 1   
    26    12    37 1   
    27    13    14 ar  
    28    13    38 1   
    29    14    15 ar  
    30    14    39 1   
    31    15    16 ar  
    32    15    40 1   
    33    16    17 1   
    34    17    41 1   
    35    18    19 1   
    36    18    42 1   
    37    19    20 ar  
    38    19    27 ar  
    39    20    21 ar  
    40    20    43 1   
    41    21    22 ar  
    42    21    44 1   
    43    22    23 1   
    44    22    26 ar  
    45    23    24 1   
    46    23    45 1   
    47    24    25 2   
    48    24    46 1   
    49    25    26 1   
    50    26    27 ar  
    51    27    47 1   
@<TRIPOS>SUBSTRUCTURE
     1 A1D         1 TEMP              0 ****  ****    0 ROOT
