@<TRIPOS>MOLECULE
A1D
   32    35     1     0     0
SMALL
No Charge or Current Charge


@<TRIPOS>ATOM
      1 C10        -20.9100    29.8920    13.6750 ca         1 A1D       0.107600
      2 C13        -18.7970    33.2850    10.7550 ca         1 A1D      -0.107800
      3 C15        -17.4320    34.6140     9.1930 ca         1 A1D      -0.125000
      4 C20        -19.7990    35.0720     9.4460 ca         1 A1D       0.055400
      5 C21        -19.9360    34.0550    10.4040 ca         1 A1D       0.014000
      6 O01        -21.7440    31.6330    10.7800 o          1 A1D      -0.517000
      7 C02        -21.2120    31.2210    11.7990 c          1 A1D       0.568200
      8 C03        -19.8540    31.4860    12.3720 cc         1 A1D      -0.132400
      9 C04        -19.7190    30.5870    13.5390 ca         1 A1D      -0.148800
     10 C05        -18.6810    30.3740    14.4700 ca         1 A1D       0.194100
     11 O06        -17.5030    31.0540    14.4130 oh         1 A1D      -0.532100
     12 C07        -18.8850    29.4360    15.5030 ca         1 A1D      -0.241000
     13 C08        -20.1050    28.7290    15.6130 ca         1 A1D      -0.031000
     14 C09        -21.1410    28.9590    14.6870 ca         1 A1D      -0.188000
     15 N11        -21.7510    30.3020    12.6540 ns         1 A1D      -0.409100
     16 C12        -18.8500    32.2090    11.7710 cf         1 A1D      -0.040200
     17 C14        -17.5460    33.5890    10.1550 ca         1 A1D      -0.074000
     18 C16        -18.5910    35.3230     8.8680 ca         1 A1D      -0.069200
     19 N17        -18.7750    36.3560     8.0020 na         1 A1D      -0.317600
     20 C18        -20.1190    36.7180     8.0780 cc         1 A1D       0.410700
     21 N19        -20.7770    35.9420     8.9660 nd         1 A1D      -0.560100
     22 H1         -16.4770    34.8440     8.7250 ha         1 A1D       0.118000
     23 H2         -20.8950    33.9100    10.8870 ha         1 A1D       0.145000
     24 H3         -16.9450    30.7570    15.1620 ho         1 A1D       0.469000
     25 H4         -18.1020    29.2500    16.2340 ha         1 A1D       0.115000
     26 H5         -20.2470    28.0090    16.4170 ha         1 A1D       0.114000
     27 H6         -22.0870    28.4300    14.7590 ha         1 A1D       0.125000
     28 H7         -22.6610    29.8900    12.4930 hn         1 A1D       0.338500
     29 H8         -17.8800    32.0520    12.2340 ha         1 A1D       0.190000
     30 H9         -16.6590    33.0200    10.4260 ha         1 A1D       0.112000
     31 H10        -18.0800    36.7910     7.4100 hn         1 A1D       0.357000
     32 H11        -20.5400    37.5230     7.4880 h5         1 A1D       0.061800
@<TRIPOS>BOND
     1     1     9 ar  
     2     1    14 ar  
     3     1    15 1   
     4     2     5 ar  
     5     2    16 1   
     6     2    17 ar  
     7     3    17 ar  
     8     3    18 ar  
     9     3    22 1   
    10     4     5 ar  
    11     4    18 ar  
    12     4    21 1   
    13     5    23 1   
    14     6     7 2   
    15     7     8 1   
    16     7    15 1   
    17     8     9 1   
    18     8    16 2   
    19     9    10 ar  
    20    10    11 1   
    21    10    12 ar  
    22    11    24 1   
    23    12    13 ar  
    24    12    25 1   
    25    13    14 ar  
    26    13    26 1   
    27    14    27 1   
    28    15    28 1   
    29    16    29 1   
    30    17    30 1   
    31    18    19 1   
    32    19    20 1   
    33    19    31 1   
    34    20    21 2   
    35    20    32 1   
@<TRIPOS>SUBSTRUCTURE
     1 A1D         1 TEMP              0 ****  ****    0 ROOT
