@<TRIPOS>MOLECULE
A1D
   46    50     1     0     0
SMALL
No Charge or Current Charge


@<TRIPOS>ATOM
      1 C10        -35.9970   -29.6580    59.8320 c6         1 A1D       0.161600
      2 C12        -35.5710   -30.2610    57.5280 c6         1 A1D       0.161600
      3 C13        -35.8430   -28.8000    57.0760 c6         1 A1D      -0.126400
      4 C14        -32.5130   -27.9240    56.4620 ca         1 A1D      -0.162000
      5 C15        -31.8290   -27.4180    55.3320 ca         1 A1D      -0.064000
      6 C16        -31.9470   -26.0570    54.9850 ca         1 A1D      -0.159000
      7 C17        -34.0890   -24.5710    57.5550 cc         1 A1D      -0.141400
      8 C18        -34.6060   -24.5380    58.8270 cf         1 A1D      -0.044200
      9 C19        -35.5000   -23.6220    59.5680 ca         1 A1D      -0.110800
     10 C20        -36.2840   -22.6370    58.9140 ca         1 A1D       0.015000
     11 C21        -37.1270   -21.8190    59.6840 ca         1 A1D       0.054400
     12 C22        -37.2000   -21.9750    61.0350 ca         1 A1D      -0.068200
     13 C24        -38.5570   -20.3520    60.3800 cc         1 A1D       0.411700
     14 C26        -36.4690   -22.9430    61.7280 ca         1 A1D      -0.124000
     15 C27        -35.6170   -23.7770    60.9760 ca         1 A1D      -0.074000
     16 C02        -33.7910   -23.3800    56.6990 c          1 A1D       0.568200
     17 N03        -33.0160   -23.8900    55.6950 ns         1 A1D      -0.409100
     18 C04        -32.7320   -25.2430    55.8050 ca         1 A1D       0.081600
     19 C05        -33.3850   -25.7100    56.9330 ca         1 A1D      -0.138800
     20 C06        -33.3160   -27.0820    57.2600 ca         1 A1D       0.162100
     21 O07        -34.0270   -27.6290    58.3000 os         1 A1D      -0.360100
     22 C08        -35.4610   -27.7550    58.1610 c6         1 A1D       0.181300
     23 C09        -36.0940   -28.1380    59.5250 c6         1 A1D      -0.126400
     24 O11        -35.1180   -30.3170    58.8990 os         1 A1D      -0.438000
     25 N23        -38.0940   -21.0570    61.4900 na         1 A1D      -0.316600
     26 N25        -37.9770   -20.8040    59.2470 nd         1 A1D      -0.560100
     27 H1         -36.9940   -30.1200    59.7680 h1         1 A1D       0.042950
     28 H2         -35.6190   -29.8130    60.8530 h1         1 A1D       0.042950
     29 H3         -36.4840   -30.8650    57.4230 h1         1 A1D       0.042950
     30 H4         -34.7970   -30.7090    56.8890 h1         1 A1D       0.042950
     31 H5         -35.3230   -28.5920    56.1320 hc         1 A1D       0.057200
     32 H6         -36.9130   -28.6970    56.8500 hc         1 A1D       0.057200
     33 H7         -32.4410   -28.9800    56.7080 ha         1 A1D       0.127000
     34 H8         -31.2230   -28.0830    54.7210 ha         1 A1D       0.116000
     35 H9         -31.4410   -25.6530    54.1110 ha         1 A1D       0.123000
     36 H10        -34.4160   -25.4550    59.3810 ha         1 A1D       0.189000
     37 H11        -36.2790   -22.5270    57.8360 ha         1 A1D       0.145000
     38 H12        -39.2870   -19.5550    60.4580 h5         1 A1D       0.062800
     39 H13        -36.5550   -23.0530    62.8070 ha         1 A1D       0.120000
     40 H14        -35.0370   -24.5400    61.4900 ha         1 A1D       0.114000
     41 H15        -32.6090   -23.3000    54.9800 hn         1 A1D       0.338500
     42 H16        -35.8590   -26.7760    57.8580 h1         1 A1D       0.051700
     43 H17        -35.6160   -27.5640    60.3300 hc         1 A1D       0.057200
     44 H18        -37.1510   -27.8410    59.5330 hc         1 A1D       0.057200
     45 H19        -38.3820   -20.9030    62.4480 hn         1 A1D       0.358000
     46 O01        -34.0650   -22.2000    56.8490 o          1 A1D      -0.518000
@<TRIPOS>BOND
     1     1    23 1   
     2     1    24 1   
     3     1    27 1   
     4     1    28 1   
     5     2     3 1   
     6     2    24 1   
     7     2    29 1   
     8     2    30 1   
     9     3    22 1   
    10     3    31 1   
    11     3    32 1   
    12     4     5 ar  
    13     4    20 ar  
    14     4    33 1   
    15     5     6 ar  
    16     5    34 1   
    17     6    18 ar  
    18     6    35 1   
    19     7     8 2   
    20     7    16 1   
    21     7    19 1   
    22     8     9 1   
    23     8    36 1   
    24     9    10 ar  
    25     9    15 ar  
    26    10    11 ar  
    27    10    37 1   
    28    11    12 ar  
    29    11    26 1   
    30    12    14 ar  
    31    12    25 1   
    32    13    25 1   
    33    13    26 2   
    34    13    38 1   
    35    14    15 ar  
    36    14    39 1   
    37    15    40 1   
    38    16    17 1   
    39    16    46 2   
    40    17    18 1   
    41    17    41 1   
    42    18    19 ar  
    43    19    20 ar  
    44    20    21 1   
    45    21    22 1   
    46    22    23 1   
    47    22    42 1   
    48    23    43 1   
    49    23    44 1   
    50    25    45 1   
@<TRIPOS>SUBSTRUCTURE
     1 A1D         1 TEMP              0 ****  ****    0 ROOT
