@<TRIPOS>MOLECULE
A1D
   29    29     1     0     0
SMALL
No Charge or Current Charge


@<TRIPOS>ATOM
      1 CB         141.9330   106.9550    80.3020 c5         1 A1D      -0.108400
      2 CG         143.0360   105.8430    80.3670 c5         1 A1D       0.137300
      3 CD         143.7280   106.0830    81.7510 c5         1 A1D       0.149800
      4 CA         141.8170   107.4340    81.7810 c5         1 A1D       0.022500
      5 C          140.7970   106.5360    82.6220 c          1 A1D       0.729000
      6 C75        145.9100   106.6900    77.4270 c3         1 A1D       0.123000
      7 C76        146.9130   105.6700    78.0270 c3         1 A1D       0.118800
      8 N          143.2540   107.4130    82.2170 n7         1 A1D      -0.799400
      9 N74        144.5950   106.0980    77.1360 ns         1 A1D      -0.514900
     10 N77        148.2660   106.2430    78.2360 n8         1 A1D      -0.991200
     11 O          140.1960   107.0570    83.5540 o          1 A1D      -0.728000
     12 O71        144.0220   106.1060    79.3300 os         1 A1D      -0.462100
     13 O73        142.5770   105.2510    77.7400 o          1 A1D      -0.558000
     14 HB3        142.2400   107.7860    79.6560 hc         1 A1D       0.057200
     15 HB2        140.9830   106.5810    79.9030 hc         1 A1D       0.057200
     16 HG2        142.6460   104.8190    80.2860 h1         1 A1D       0.056700
     17 HD2        143.4210   105.3010    82.4610 h1         1 A1D       0.056700
     18 HD3        144.8240   106.0450    81.6820 h1         1 A1D       0.056700
     19 HA         141.4280   108.4610    81.8160 h1         1 A1D       0.036700
     20 H8         145.7810   107.5340    78.1190 h1         1 A1D       0.056200
     21 H9         146.3180   107.0890    76.4890 h1         1 A1D       0.056200
     22 H10        147.0000   104.8080    77.3510 h1         1 A1D       0.036700
     23 H11        146.5350   105.3080    78.9930 h1         1 A1D       0.036700
     24 H          143.7590   108.1270    81.6790 hn         1 A1D       0.369000
     25 H14        144.3680   105.8820    76.1740 hn         1 A1D       0.316500
     26 H15        148.8900   105.5090    78.5960 hn         1 A1D       0.387500
     27 H16        148.6770   106.4820    77.3250 hn         1 A1D       0.387500
     28 OXT        140.5940   105.3660    82.3140 o          1 A1D      -0.728000
     29 C72        143.6330   105.7730    78.0580 c          1 A1D       0.643100
@<TRIPOS>BOND
     1     1     2 1   
     2     1     4 1   
     3     1    14 1   
     4     1    15 1   
     5     2     3 1   
     6     2    12 1   
     7     2    16 1   
     8     3     8 1   
     9     3    17 1   
    10     3    18 1   
    11     4     5 1   
    12     4     8 1   
    13     4    19 1   
    14     5    11 1   
    15     5    28 1   
    16     6     7 1   
    17     6     9 1   
    18     6    20 1   
    19     6    21 1   
    20     7    10 1   
    21     7    22 1   
    22     7    23 1   
    23     8    24 1   
    24     9    25 1   
    25     9    29 1   
    26    10    26 1   
    27    10    27 1   
    28    12    29 1   
    29    13    29 2   
@<TRIPOS>SUBSTRUCTURE
     1 A1D         1 TEMP              0 ****  ****    0 ROOT
