@<TRIPOS>MOLECULE
A1D
   64    66     1     0     0
SMALL
abcg2


@<TRIPOS>ATOM
      1 C08         85.4560   121.3100   110.7660 c3         1 A1D       0.095300
      2 C09         84.4610   122.2100   110.0340 c3         1 A1D      -0.088900
      3 C10         85.0550   120.9660   112.2010 c3         1 A1D      -0.088900
      4 C11         87.2450   123.0270   111.3170 ca         1 A1D      -0.064200
      5 C12         87.8880   121.3270   110.0890 cc         1 A1D       0.402800
      6 C13         89.7220   128.5560   113.6180 c3         1 A1D       0.123700
      7 C14         89.1530   129.8310   113.0010 c3         1 A1D      -0.085400
      8 C15         89.2270   129.9320   111.4780 c3         1 A1D      -0.056700
      9 C16         88.6140   123.0990   111.0100 ca         1 A1D       0.048400
     10 C17         87.8180   120.0700   109.2890 c3         1 A1D      -0.017400
     11 C18         86.6270   124.0050   112.0930 ca         1 A1D      -0.135000
     12 C19         89.6090   128.5720   115.1410 c3         1 A1D      -0.224400
     13 C20         88.7870   125.1340   112.2480 ca         1 A1D      -0.162600
     14 C21         89.3930   124.1460   111.4850 ca         1 A1D       0.002000
     15 C22         83.1180   121.5320   109.8000 c3         1 A1D      -0.089600
     16 C23         86.0820   120.1100   112.9270 c3         1 A1D      -0.089600
     17 C24         87.4140   125.0480   112.5440 ca         1 A1D      -0.069000
     18 C25         89.6570   126.2400   112.7590 c          1 A1D       0.604700
     19 C26         90.6580   129.8100   110.9610 c3         1 A1D      -0.085600
     20 C27         88.6080   131.2490   111.0210 c3         1 A1D      -0.085600
     21 C28         86.9760   120.2280   108.0560 cc         1 A1D      -0.210300
     22 C29         90.4750   129.6490   115.8280 c          1 A1D       0.719000
     23 C30         86.8880   121.3060   107.2260 cd         1 A1D      -0.119000
     24 C31         86.0010   121.0940   106.1340 cd         1 A1D      -0.129000
     25 C32         85.4290   119.8600   106.1550 cc         1 A1D      -0.244000
     26 N05         86.8020   121.8770   110.7140 na         1 A1D      -0.174600
     27 N06         88.9780   122.0250   110.2380 nd         1 A1D      -0.566100
     28 N07         89.0460   127.3980   113.0530 ns         1 A1D      -0.491900
     29 O02         90.8680   126.0760   112.8760 o          1 A1D      -0.610100
     30 O03         89.9990   130.1880   116.8470 o          1 A1D      -0.734000
     31 O04         91.5960   129.8670   115.3240 o          1 A1D      -0.734000
     32 S01         85.9660   118.9490   107.5040 ss         1 A1D       0.169000
     33 H081        85.5080   120.3700   110.2140 h1         1 A1D       0.060700
     34 H092        84.8960   122.4820   109.0690 hc         1 A1D       0.052200
     35 H091        84.3130   123.1420   110.5870 hc         1 A1D       0.052200
     36 H101        84.8500   121.8760   112.7690 hc         1 A1D       0.052200
     37 H102        84.1080   120.4260   112.1520 hc         1 A1D       0.052200
     38 H131        90.7760   128.4700   113.3580 h1         1 A1D       0.101700
     39 H141        89.6940   130.6790   113.4330 hc         1 A1D       0.053700
     40 H142        88.1090   129.9420   113.3190 hc         1 A1D       0.053700
     41 H151        88.6380   129.1170   111.0440 hc         1 A1D       0.026700
     42 H172        87.4440   119.2480   109.9060 hc         1 A1D       0.074200
     43 H171        88.8410   119.8060   109.0170 hc         1 A1D       0.074200
     44 H181        85.5780   123.9710   112.3500 ha         1 A1D       0.112000
     45 H192        88.5600   128.6810   115.4330 hc         1 A1D       0.024700
     46 H191        89.9320   127.5950   115.5220 hc         1 A1D       0.024700
     47 H211        90.4500   124.1890   111.2580 ha         1 A1D       0.152000
     48 H221        82.4730   122.1630   109.1880 hc         1 A1D       0.036033
     49 H222        83.2430   120.5820   109.2770 hc         1 A1D       0.036033
     50 H223        82.5870   121.3330   110.7310 hc         1 A1D       0.036033
     51 H231        85.7020   119.7980   113.8990 hc         1 A1D       0.036033
     52 H232        86.3180   119.2070   112.3600 hc         1 A1D       0.036033
     53 H233        87.0160   120.6470   113.1000 hc         1 A1D       0.036033
     54 H241        86.9420   125.7940   113.1710 ha         1 A1D       0.117000
     55 H263        91.0940   128.8340   111.1770 hc         1 A1D       0.028033
     56 H261        90.6960   129.9490   109.8790 hc         1 A1D       0.028033
     57 H262        91.3010   130.5680   111.4140 hc         1 A1D       0.028033
     58 H271        87.5760   131.3470   111.3640 hc         1 A1D       0.028033
     59 H273        89.1680   132.1000   111.4160 hc         1 A1D       0.028033
     60 H272        88.6060   131.3320   109.9330 hc         1 A1D       0.028033
     61 H301        87.4350   122.2250   107.3870 ha         1 A1D       0.151000
     62 H311        85.7980   121.8320   105.3710 ha         1 A1D       0.134000
     63 H321        84.7250   119.4390   105.4550 h4         1 A1D       0.147000
     64 H071        88.0540   127.4810   112.8970 hn         1 A1D       0.292500
@<TRIPOS>BOND
     1     1     2 1   
     2     1     3 1   
     3     1    26 1   
     4     1    33 1   
     5     2    15 1   
     6     2    34 1   
     7     2    35 1   
     8     3    16 1   
     9     3    36 1   
    10     3    37 1   
    11     4     9 ar  
    12     4    11 ar  
    13     4    26 1   
    14     5    10 1   
    15     5    26 1   
    16     5    27 2   
    17     6     7 1   
    18     6    12 1   
    19     6    28 1   
    20     6    38 1   
    21     7     8 1   
    22     7    39 1   
    23     7    40 1   
    24     8    19 1   
    25     8    20 1   
    26     8    41 1   
    27     9    14 ar  
    28     9    27 1   
    29    10    21 1   
    30    10    42 1   
    31    10    43 1   
    32    11    17 ar  
    33    11    44 1   
    34    12    22 1   
    35    12    45 1   
    36    12    46 1   
    37    13    14 ar  
    38    13    17 ar  
    39    13    18 1   
    40    14    47 1   
    41    15    48 1   
    42    15    49 1   
    43    15    50 1   
    44    16    51 1   
    45    16    52 1   
    46    16    53 1   
    47    17    54 1   
    48    18    28 1   
    49    18    29 2   
    50    19    55 1   
    51    19    56 1   
    52    19    57 1   
    53    20    58 1   
    54    20    59 1   
    55    20    60 1   
    56    21    23 2   
    57    21    32 1   
    58    22    30 1   
    59    22    31 1   
    60    23    24 1   
    61    23    61 1   
    62    24    25 2   
    63    24    62 1   
    64    25    32 1   
    65    25    63 1   
    66    28    64 1   
@<TRIPOS>SUBSTRUCTURE
     1 A1D         1 TEMP              0 ****  ****    0 ROOT
