@<TRIPOS>MOLECULE
A1D
   29    29     1     0     0
SMALL
abcg2


@<TRIPOS>ATOM
      1 CB         141.7350   106.4380    80.3940 c5         1 A1D      -0.108400
      2 CG         142.8560   105.4340    80.1600 c5         1 A1D       0.137300
      3 CD         143.5310   105.4020    81.5240 c5         1 A1D       0.149800
      4 CA         142.2680   107.3710    81.5240 c5         1 A1D       0.022500
      5 C          141.1960   107.4920    82.6240 c          1 A1D       0.729000
      6 C75        145.8160   106.9420    77.7090 c3         1 A1D       0.123000
      7 C76        146.8500   105.8950    78.1120 c3         1 A1D       0.118800
      8 N          143.5260   106.7750    81.9980 n7         1 A1D      -0.799400
      9 N74        144.5860   106.3750    77.1990 ns         1 A1D      -0.514900
     10 N77        148.0690   106.5560    78.5480 n8         1 A1D      -0.991200
     11 O          140.3910   108.4380    82.4970 o          1 A1D      -0.728000
     12 O71        143.8330   105.9380    79.2380 os         1 A1D      -0.462100
     13 O73        142.6160   105.2850    77.4570 o          1 A1D      -0.558000
     14 HB3        141.4520   106.9800    79.4930 hc         1 A1D       0.057200
     15 HB2        140.8490   105.8880    80.7210 hc         1 A1D       0.057200
     16 HG2        142.5010   104.4570    79.8290 h1         1 A1D       0.056700
     17 HD2        142.9310   104.7760    82.1890 h1         1 A1D       0.056700
     18 HD3        144.5390   104.9850    81.4990 h1         1 A1D       0.056700
     19 HA         142.4790   108.3640    81.1200 h1         1 A1D       0.036700
     20 H8         145.6130   107.6060    78.5500 h1         1 A1D       0.056200
     21 H9         146.2270   107.5640    76.9120 h1         1 A1D       0.056200
     22 H10        146.9920   105.1980    77.2750 h1         1 A1D       0.036700
     23 H11        146.4580   105.3080    78.9450 h1         1 A1D       0.036700
     24 H          144.2940   107.2630    81.5540 hn         1 A1D       0.369000
     25 H14        144.4980   106.2630    76.2030 hn         1 A1D       0.316500
     26 H15        148.7070   105.8700    78.9300 hn         1 A1D       0.387500
     27 H16        148.5420   106.9550    77.7470 hn         1 A1D       0.387500
     28 OXT        141.1850   106.6120    83.5060 o          1 A1D      -0.728000
     29 C72        143.6000   105.8200    77.9310 c          1 A1D       0.643100
@<TRIPOS>BOND
     1     1     2 1   
     2     1     4 1   
     3     1    14 1   
     4     1    15 1   
     5     2     3 1   
     6     2    12 1   
     7     2    16 1   
     8     3     8 1   
     9     3    17 1   
    10     3    18 1   
    11     4     5 1   
    12     4     8 1   
    13     4    19 1   
    14     5    11 1   
    15     5    28 1   
    16     6     7 1   
    17     6     9 1   
    18     6    20 1   
    19     6    21 1   
    20     7    10 1   
    21     7    22 1   
    22     7    23 1   
    23     8    24 1   
    24     9    25 1   
    25     9    29 1   
    26    10    26 1   
    27    10    27 1   
    28    12    29 1   
    29    13    29 2   
@<TRIPOS>SUBSTRUCTURE
     1 A1D         1 TEMP              0 ****  ****    0 ROOT
