@<TRIPOS>MOLECULE
A1D
   49    53     1     0     0
SMALL
No Charge or Current Charge


@<TRIPOS>ATOM
      1 C27         -8.2770    31.7070    -8.4450 ca         1 A1D       0.056400
      2 C28         -7.2450    31.7620    -7.4950 ca         1 A1D       0.014000
      3 C29         -3.4940    31.4770    -4.7220 ca         1 A1D      -0.148800
      4 C01          0.1180    31.6810   -11.3810 c3         1 A1D      -0.177100
      5 O03         -0.3410    34.0260   -11.1780 o          1 A1D      -0.599100
      6 N04         -0.8510    32.7810    -9.3250 n          1 A1D      -0.427800
      7 C05         -1.3620    33.9170    -8.5310 c5         1 A1D       0.103000
      8 C06         -2.1010    33.1850    -7.3840 c5         1 A1D      -0.127400
      9 C07         -1.1580    31.9780    -7.1270 c5         1 A1D       0.158300
     10 C08         -0.8480    31.5030    -8.5740 c5         1 A1D       0.106000
     11 C10         -2.1680    31.2890    -5.1630 ca         1 A1D       0.201100
     12 C11         -1.1190    31.4640    -4.2300 ca         1 A1D      -0.232000
     13 C12         -1.3880    31.8590    -2.8990 ca         1 A1D      -0.035000
     14 C13         -2.7150    32.0820    -2.4830 ca         1 A1D      -0.185000
     15 C14         -3.7310    31.8830    -3.4190 ca         1 A1D       0.106600
     16 N15         -5.1000    32.0350    -3.2750 ns         1 A1D      -0.408100
     17 C16         -5.8320    31.7390    -4.3910 c          1 A1D       0.567200
     18 O17         -7.0520    31.7100    -4.4470 o          1 A1D      -0.515000
     19 C18         -4.7960    31.3960    -5.4150 cc         1 A1D      -0.131400
     20 C19         -5.0290    30.8500    -6.6540 cf         1 A1D      -0.042200
     21 C20         -6.1680    30.8440    -7.5990 ca         1 A1D      -0.106800
     22 C21         -6.1460    29.9240    -8.6810 ca         1 A1D      -0.075000
     23 C22         -7.1950    29.8860    -9.6230 ca         1 A1D      -0.124000
     24 C23         -8.2420    30.7960    -9.4570 ca         1 A1D      -0.069200
     25 N24         -9.3600    30.9960   -10.2060 na         1 A1D      -0.317600
     26 C25        -10.0610    32.0480    -9.6210 cc         1 A1D       0.412700
     27 N26         -9.4130    32.5110    -8.5300 nd         1 A1D      -0.560100
     28 H1          -7.2700    32.5290    -6.7300 ha         1 A1D       0.144000
     29 H2           0.4150    31.8960   -12.4130 hc         1 A1D       0.060700
     30 H3           0.9440    31.2290   -10.8200 hc         1 A1D       0.060700
     31 H4          -0.6560    30.9080   -11.3350 hc         1 A1D       0.060700
     32 H5          -0.5320    34.5300    -8.1540 h1         1 A1D       0.060200
     33 H6          -2.0390    34.5630    -9.1080 h1         1 A1D       0.060200
     34 H7          -2.2290    33.8220    -6.5020 hc         1 A1D       0.069200
     35 H8          -3.0960    32.8580    -7.7060 hc         1 A1D       0.069200
     36 H9          -0.2430    32.2530    -6.5850 h1         1 A1D       0.059700
     37 H10         -1.6250    30.8270    -8.9550 h1         1 A1D       0.057200
     38 H11          0.1220    30.9910    -8.6230 h1         1 A1D       0.057200
     39 H12         -0.0900    31.2900    -4.5330 ha         1 A1D       0.120000
     40 H13         -0.5690    31.9940    -2.1950 ha         1 A1D       0.115000
     41 H14         -2.9400    32.3950    -1.4670 ha         1 A1D       0.126000
     42 H15         -5.5380    32.2610    -2.3910 hn         1 A1D       0.339500
     43 H16         -4.1340    30.4320    -7.1080 ha         1 A1D       0.186000
     44 H17         -5.3180    29.2260    -8.7870 ha         1 A1D       0.110000
     45 H18         -7.1860    29.1770   -10.4480 ha         1 A1D       0.118000
     46 H19         -9.6420    30.4870   -11.0340 hn         1 A1D       0.357000
     47 H20        -10.9980    32.4180   -10.0210 h5         1 A1D       0.061800
     48 O09         -1.8980    30.9180    -6.4620 os         1 A1D      -0.345100
     49 C02         -0.3640    32.9280   -10.6380 c          1 A1D       0.610100
@<TRIPOS>BOND
     1     1     2 ar  
     2     1    24 ar  
     3     1    27 1   
     4     2    21 ar  
     5     2    28 1   
     6     3    11 ar  
     7     3    15 ar  
     8     3    19 1   
     9     4    29 1   
    10     4    30 1   
    11     4    31 1   
    12     4    49 1   
    13     5    49 2   
    14     6     7 1   
    15     6    10 1   
    16     6    49 1   
    17     7     8 1   
    18     7    32 1   
    19     7    33 1   
    20     8     9 1   
    21     8    34 1   
    22     8    35 1   
    23     9    10 1   
    24     9    36 1   
    25     9    48 1   
    26    10    37 1   
    27    10    38 1   
    28    11    12 ar  
    29    11    48 1   
    30    12    13 ar  
    31    12    39 1   
    32    13    14 ar  
    33    13    40 1   
    34    14    15 ar  
    35    14    41 1   
    36    15    16 1   
    37    16    17 1   
    38    16    42 1   
    39    17    18 2   
    40    17    19 1   
    41    19    20 2   
    42    20    21 1   
    43    20    43 1   
    44    21    22 ar  
    45    22    23 ar  
    46    22    44 1   
    47    23    24 ar  
    48    23    45 1   
    49    24    25 1   
    50    25    26 1   
    51    25    46 1   
    52    26    27 2   
    53    26    47 1   
@<TRIPOS>SUBSTRUCTURE
     1 A1D         1 TEMP              0 ****  ****    0 ROOT
