@<TRIPOS>MOLECULE
A1D
   57    58     1     0     0
SMALL
No Charge or Current Charge


@<TRIPOS>ATOM
      1 C10         97.5590   121.3360   122.3700 c5         1 A1D      -0.088700
      2 C13         95.3880   120.2410   122.8830 c5         1 A1D      -0.123400
      3 C15         96.7940   120.9010   121.0870 c5         1 A1D      -0.032500
      4 C17         98.0990   121.4530   119.0600 c2         1 A1D      -0.262200
      5 C21        100.8710   124.5520   118.9690 ca         1 A1D       0.151100
      6 C22        100.3560   125.8460   119.1530 ca         1 A1D      -0.136000
      7 C24        102.5380   126.6260   119.8880 ca         1 A1D      -0.136000
      8 C26        102.2320   124.2960   119.2430 ca         1 A1D      -0.209000
      9 C02         97.3450   128.6100   122.7130 c          1 A1D       0.714000
     10 C04         97.8230   127.5070   121.7500 c3         1 A1D      -0.209400
     11 C05         98.6150   126.4020   122.4960 c3         1 A1D      -0.037400
     12 C06         97.7820   125.5770   123.5040 c3         1 A1D      -0.059200
     13 C07         98.5880   124.4450   124.1160 c2         1 A1D      -0.172200
     14 C09         98.2970   122.6990   122.2580 c3         1 A1D      -0.029200
     15 C11         96.4530   121.2220   123.4770 c5         1 A1D       0.184300
     16 C14         96.0770   119.6370   121.6310 c5         1 A1D       0.173300
     17 C16         97.8050   120.5390   120.0010 c2         1 A1D      -0.181200
     18 C18         99.1780   121.3230   118.0120 c3         1 A1D       0.212500
     19 C19        100.4200   122.1990   118.3510 c3         1 A1D       0.172600
     20 C23        101.1850   126.8840   119.6120 ca         1 A1D      -0.051000
     21 C25        103.0570   125.3350   119.7020 ca         1 A1D       0.157000
     22 O01         96.2300   128.5130   123.2010 o          1 A1D      -0.741000
     23 O03         98.1120   129.5280   122.9620 o          1 A1D      -0.741000
     24 O12         95.8770   122.4840   123.7920 oh         1 A1D      -0.659000
     25 O20        100.0070   123.5720   118.5280 os         1 A1D      -0.333100
     26 O28         98.6190   121.6780   116.7440 oh         1 A1D      -0.647000
     27 O29         95.1300   119.0990   120.7110 oh         1 A1D      -0.649000
     28 Cl27       104.7510   125.0150   120.0460 cl         1 A1D      -0.229000
     29 H1          98.3440   120.6020   122.5950 hc         1 A1D       0.038700
     30 H2          94.4710   120.7750   122.6060 hc         1 A1D       0.058200
     31 H3          95.0990   119.4690   123.6050 hc         1 A1D       0.058200
     32 H4          96.0800   121.6650   120.7540 hc         1 A1D       0.087700
     33 H5          97.6010   122.4240   119.0530 ha         1 A1D       0.201000
     34 H6          99.3080   126.0420   118.9440 ha         1 A1D       0.136000
     35 H7         103.1850   127.4240   120.2440 ha         1 A1D       0.133000
     36 H8         102.6620   123.3090   119.1090 ha         1 A1D       0.121000
     37 H9          98.5370   127.9240   121.0300 hc         1 A1D       0.015200
     38 H10         96.9700   127.0060   121.2750 hc         1 A1D       0.015200
     39 H11         99.0350   125.7160   121.7510 hc         1 A1D       0.021200
     40 H12         99.4670   126.8550   123.0170 hc         1 A1D       0.021200
     41 H13         96.8900   125.1880   122.9980 hc         1 A1D       0.058200
     42 H14         97.4130   126.2340   124.3010 hc         1 A1D       0.058200
     43 H15         99.0260   124.6970   125.0850 ha         1 A1D       0.163000
     44 H17         99.4180   122.5100   124.1390 ha         1 A1D       0.148000
     45 H19         99.1490   122.5870   121.5770 hc         1 A1D       0.055700
     46 H20         97.6400   123.4280   121.7710 hc         1 A1D       0.055700
     47 H21         96.9000   120.7940   124.3860 h1         1 A1D       0.032700
     48 H22         96.8050   118.8650   121.9210 h1         1 A1D       0.019700
     49 H23         98.3300   119.5820   120.0250 ha         1 A1D       0.155000
     50 H24         99.5120   120.2770   117.9770 h1         1 A1D       0.028700
     51 H25        101.1630   122.1140   117.5480 h1         1 A1D       0.042700
     52 H26        100.8670   121.8130   119.2760 h1         1 A1D       0.042700
     53 H27        100.7800   127.8840   119.7560 ha         1 A1D       0.137000
     54 H29         96.6440   123.0990   123.8580 ho         1 A1D       0.463000
     55 H30         97.8050   121.1400   116.6450 ho         1 A1D       0.444000
     56 H31         94.7210   118.3220   121.1490 ho         1 A1D       0.436000
     57 C08         98.8040   123.2270   123.5900 c2         1 A1D      -0.284200
@<TRIPOS>BOND
     1     1     3 1   
     2     1    14 1   
     3     1    15 1   
     4     1    29 1   
     5     2    15 1   
     6     2    16 1   
     7     2    30 1   
     8     2    31 1   
     9     3    16 1   
    10     3    17 1   
    11     3    32 1   
    12     4    17 2   
    13     4    18 1   
    14     4    33 1   
    15     5     6 ar  
    16     5     8 ar  
    17     5    25 1   
    18     6    20 ar  
    19     6    34 1   
    20     7    20 ar  
    21     7    21 ar  
    22     7    35 1   
    23     8    21 ar  
    24     8    36 1   
    25     9    10 1   
    26     9    22 1   
    27     9    23 1   
    28    10    11 1   
    29    10    37 1   
    30    10    38 1   
    31    11    12 1   
    32    11    39 1   
    33    11    40 1   
    34    12    13 1   
    35    12    41 1   
    36    12    42 1   
    37    13    43 1   
    38    13    57 2   
    39    14    45 1   
    40    14    46 1   
    41    14    57 1   
    42    15    24 1   
    43    15    47 1   
    44    16    27 1   
    45    16    48 1   
    46    17    49 1   
    47    18    19 1   
    48    18    26 1   
    49    18    50 1   
    50    19    25 1   
    51    19    51 1   
    52    19    52 1   
    53    20    53 1   
    54    21    28 1   
    55    24    54 1   
    56    26    55 1   
    57    27    56 1   
    58    44    57 1   
@<TRIPOS>SUBSTRUCTURE
     1 A1D         1 TEMP              0 ****  ****    0 ROOT
