@<TRIPOS>MOLECULE
A1D
   49    53     1     0     0
SMALL
abcg2


@<TRIPOS>ATOM
      1 C27         -8.7510    31.3000    -8.2020 ca         1 A1D       0.056400
      2 C28         -7.6750    31.5320    -7.3550 ca         1 A1D       0.014000
      3 C29         -3.7880    31.6620    -4.8890 ca         1 A1D      -0.148800
      4 C01         -0.0210    31.4690   -11.3190 c3         1 A1D      -0.177100
      5 O03          1.2940    33.4360   -10.9250 o          1 A1D      -0.599100
      6 N04         -0.0940    32.7900    -9.2860 n          1 A1D      -0.427800
      7 C05          0.2550    33.9080    -8.4140 c5         1 A1D       0.103000
      8 C06         -0.7820    33.8290    -7.3030 c5         1 A1D      -0.127400
      9 C07         -1.0770    32.3350    -7.2290 c5         1 A1D       0.158300
     10 C08         -1.0820    31.9080    -8.6940 c5         1 A1D       0.106000
     11 C10         -2.5130    32.0010    -5.3400 ca         1 A1D       0.201100
     12 C11         -1.5230    32.3060    -4.4020 ca         1 A1D      -0.232000
     13 C12         -1.8120    32.2660    -3.0440 ca         1 A1D      -0.035000
     14 C13         -3.0740    31.9330    -2.5670 ca         1 A1D      -0.185000
     15 C14         -4.0370    31.6380    -3.5130 ca         1 A1D       0.106600
     16 N15         -5.3580    31.2880    -3.3070 ns         1 A1D      -0.408100
     17 C16         -6.0330    31.0810    -4.4780 c          1 A1D       0.567200
     18 O17         -7.1890    30.7170    -4.5510 o          1 A1D      -0.515000
     19 C18         -5.0370    31.3330    -5.5720 cc         1 A1D      -0.131400
     20 C19         -5.2290    31.1900    -6.9000 cf         1 A1D      -0.042200
     21 C20         -6.4460    30.9630    -7.6730 ca         1 A1D      -0.106800
     22 C21         -6.3100    30.1980    -8.8560 ca         1 A1D      -0.075000
     23 C22         -7.3700    29.9390    -9.6980 ca         1 A1D      -0.124000
     24 C23         -8.5940    30.5010    -9.3490 ca         1 A1D      -0.069200
     25 N24         -9.8270    30.4890    -9.9340 na         1 A1D      -0.317600
     26 C25        -10.6440    31.2470    -9.1590 cc         1 A1D       0.412700
     27 N26        -10.0490    31.7530    -8.1190 nd         1 A1D      -0.560100
     28 H1          -7.7950    32.1660    -6.4890 ha         1 A1D       0.144000
     29 H2           0.4120    31.5110   -12.3150 hc         1 A1D       0.060700
     30 H3           0.2770    30.5280   -10.8540 hc         1 A1D       0.060700
     31 H4          -1.1090    31.4530   -11.4100 hc         1 A1D       0.060700
     32 H5           1.2700    33.7900    -8.0250 h1         1 A1D       0.060200
     33 H6           0.2150    34.8560    -8.9500 h1         1 A1D       0.060200
     34 H7          -0.4180    34.2560    -6.3700 hc         1 A1D       0.069200
     35 H8          -1.6930    34.3600    -7.5910 hc         1 A1D       0.069200
     36 H9          -0.2710    31.8110    -6.7030 h1         1 A1D       0.059700
     37 H10         -2.0770    32.0640    -9.1260 h1         1 A1D       0.057200
     38 H11         -0.8200    30.8570    -8.8130 h1         1 A1D       0.057200
     39 H12         -0.5240    32.5770    -4.7120 ha         1 A1D       0.120000
     40 H13         -1.0260    32.5060    -2.3400 ha         1 A1D       0.115000
     41 H14         -3.2900    31.9080    -1.5080 ha         1 A1D       0.126000
     42 H15         -5.7790    31.1650    -2.3990 hn         1 A1D       0.339500
     43 H16         -4.3380    31.2470    -7.5130 ha         1 A1D       0.186000
     44 H17         -5.3350    29.7960    -9.1030 ha         1 A1D       0.110000
     45 H18         -7.2460    29.3410   -10.5910 ha         1 A1D       0.118000
     46 H19        -10.0890    30.0150   -10.7840 hn         1 A1D       0.357000
     47 H20        -11.6820    31.3920    -9.4170 h5         1 A1D       0.061800
     48 O09         -2.3290    32.0000    -6.6710 os         1 A1D      -0.345100
     49 C02          0.4550    32.6480   -10.5080 c          1 A1D       0.610100
@<TRIPOS>BOND
     1     1     2 ar  
     2     1    24 ar  
     3     1    27 1   
     4     2    21 ar  
     5     2    28 1   
     6     3    11 ar  
     7     3    15 ar  
     8     3    19 1   
     9     4    29 1   
    10     4    30 1   
    11     4    31 1   
    12     4    49 1   
    13     5    49 2   
    14     6     7 1   
    15     6    10 1   
    16     6    49 1   
    17     7     8 1   
    18     7    32 1   
    19     7    33 1   
    20     8     9 1   
    21     8    34 1   
    22     8    35 1   
    23     9    10 1   
    24     9    36 1   
    25     9    48 1   
    26    10    37 1   
    27    10    38 1   
    28    11    12 ar  
    29    11    48 1   
    30    12    13 ar  
    31    12    39 1   
    32    13    14 ar  
    33    13    40 1   
    34    14    15 ar  
    35    14    41 1   
    36    15    16 1   
    37    16    17 1   
    38    16    42 1   
    39    17    18 2   
    40    17    19 1   
    41    19    20 2   
    42    20    21 1   
    43    20    43 1   
    44    21    22 ar  
    45    22    23 ar  
    46    22    44 1   
    47    23    24 ar  
    48    23    45 1   
    49    24    25 1   
    50    25    26 1   
    51    25    46 1   
    52    26    27 2   
    53    26    47 1   
@<TRIPOS>SUBSTRUCTURE
     1 A1D         1 TEMP              0 ****  ****    0 ROOT
