@<TRIPOS>MOLECULE
A1D
   94    97     1     0     0
SMALL
No Charge or Current Charge


@<TRIPOS>ATOM
      1 C10        152.1790   128.4760   100.6120 c3         1 A1D       0.101000
      2 C15        148.0280   127.4580   101.7060 c3         1 A1D      -0.045100
      3 C17        148.4240   129.7100   102.7700 ca         1 A1D      -0.108000
      4 C20        146.5490   129.2770   104.8140 ca         1 A1D      -0.031000
      5 C21        145.6130   129.0840   105.8490 ca         1 A1D      -0.100000
      6 C22        144.8960   127.8820   105.9410 ca         1 A1D      -0.110000
      7 C24        146.0340   127.0580   103.9540 ca         1 A1D      -0.099000
      8 C01        151.3330   127.0310    96.4260 c3         1 A1D      -0.090100
      9 C02        150.9820   127.8400    97.7010 c3         1 A1D      -0.040700
     10 C03        149.5170   128.3790    97.6210 c3         1 A1D      -0.062400
     11 C04        149.1420   129.2960    96.4230 c3         1 A1D       0.150800
     12 C06        152.1280   128.8650    98.0200 c3         1 A1D      -0.061400
     13 C07        152.2540   129.5410    99.4380 c3         1 A1D      -0.053000
     14 C08        153.6590   130.2060    99.5020 c3         1 A1D      -0.086100
     15 C09        151.2150   130.6750    99.6690 c3         1 A1D      -0.086100
     16 C12        150.6360   126.8750   101.8390 c          1 A1D       0.610100
     17 C14        149.1460   126.4110   102.0310 c3         1 A1D       0.062700
     18 C16        147.7270   128.4840   102.8090 ca         1 A1D      -0.047300
     19 C18        148.1960   130.7020   103.7340 ca         1 A1D      -0.100000
     20 C19        147.2610   130.4870   104.7540 ca         1 A1D      -0.092000
     21 C23        145.1090   126.8700   104.9940 ca         1 A1D      -0.112000
     22 C25        146.7710   128.2630   103.8450 ca         1 A1D      -0.012000
     23 C30        149.0260   125.8520   107.0440 c3         1 A1D       0.120000
     24 C31        147.8990   126.7290   107.6220 c3         1 A1D      -0.057100
     25 C32        148.1870   127.1740   109.0480 ca         1 A1D      -0.061300
     26 C33        148.6280   128.4860   109.3100 ca         1 A1D      -0.112000
     27 C34        148.8950   128.8930   110.6290 ca         1 A1D      -0.107500
     28 C35        148.7230   127.9920   111.6920 ca         1 A1D      -0.116000
     29 C36        148.2830   126.6820   111.4370 ca         1 A1D      -0.107500
     30 C37        148.0150   126.2740   110.1180 ca         1 A1D      -0.112000
     31 C38        147.9210   124.2030   105.4840 c3         1 A1D       0.110000
     32 C39        148.7560   122.9120   105.4170 c3         1 A1D      -0.161700
     33 C40        147.8820   121.6850   105.2380 ca         1 A1D       0.349300
     34 C41        147.4850   121.2620   103.9550 ca         1 A1D      -0.162000
     35 C42        146.6680   120.1280   103.8280 ca         1 A1D      -0.071000
     36 C43        146.2790   119.4610   105.0010 ca         1 A1D      -0.166000
     37 C44        146.7180   119.9500   106.2440 ca         1 A1D       0.341900
     38 N05        149.7230   130.6470    96.4930 n8         1 A1D      -0.993200
     39 N11        150.8430   127.9210   100.9640 ns         1 A1D      -0.480900
     40 N26        148.9270   125.6990   103.3150 ns         1 A1D      -0.517900
     41 N29        148.7560   125.4170   105.6550 n          1 A1D      -0.428800
     42 N45        147.5060   121.0440   106.3670 nb         1 A1D      -0.673000
     43 O13        151.5860   126.3180   102.3790 o          1 A1D      -0.613100
     44 O28        149.8250   127.2370   104.7360 o          1 A1D      -0.635100
     45 H1         152.8480   127.6390   100.3680 h1         1 A1D       0.057200
     46 H2         152.5740   128.9420   101.5250 h1         1 A1D       0.057200
     47 H3         148.2650   127.9770   100.7710 hc         1 A1D       0.048700
     48 H4         147.1160   126.9110   101.4490 hc         1 A1D       0.048700
     49 H5         149.1510   129.9010   101.9870 ha         1 A1D       0.100000
     50 H6         145.4470   129.8630   106.5890 ha         1 A1D       0.112000
     51 H7         144.1790   127.7350   106.7450 ha         1 A1D       0.113000
     52 H8         146.1680   126.2460   103.2480 ha         1 A1D       0.106000
     53 H9         152.2690   126.4770    96.5640 hc         1 A1D       0.031700
     54 H10        150.5470   126.3010    96.1960 hc         1 A1D       0.031700
     55 H11        151.4570   127.6900    95.5590 hc         1 A1D       0.031700
     56 H12        150.9890   127.0970    98.5060 hc         1 A1D       0.048700
     57 H13        149.2250   128.8590    98.5560 hc         1 A1D       0.029700
     58 H14        148.8600   127.5030    97.5560 hc         1 A1D       0.029700
     59 H15        148.0490   129.4100    96.4050 h1         1 A1D       0.023200
     60 H16        149.4410   128.8290    95.4760 h1         1 A1D       0.023200
     61 H17        153.0680   128.3230    97.8540 hc         1 A1D       0.047200
     62 H18        152.1250   129.6480    97.2530 hc         1 A1D       0.047200
     63 H19        153.8120   130.7190   100.4590 hc         1 A1D       0.033200
     64 H20        154.4560   129.4590    99.3950 hc         1 A1D       0.033200
     65 H21        153.7810   130.9470    98.7010 hc         1 A1D       0.033200
     66 H22        151.4260   131.2040   100.6070 hc         1 A1D       0.033200
     67 H23        151.2540   131.4120    98.8590 hc         1 A1D       0.033200
     68 H24        150.1910   130.3050    99.7450 hc         1 A1D       0.033200
     69 H25        149.0360   125.6460   101.2530 h1         1 A1D       0.057700
     70 H26        148.7450   131.6400   103.6890 ha         1 A1D       0.113000
     71 H27        147.0910   131.2620   105.4970 ha         1 A1D       0.114000
     72 H28        144.5560   125.9370   105.0660 ha         1 A1D       0.109000
     73 H29        149.1470   124.9640   107.6770 h1         1 A1D       0.058700
     74 H30        149.9740   126.4040   107.0850 h1         1 A1D       0.058700
     75 H31        147.7700   127.6020   106.9720 hc         1 A1D       0.059700
     76 H32        146.9530   126.1770   107.5870 hc         1 A1D       0.059700
     77 H33        148.7660   129.1900   108.4920 ha         1 A1D       0.109500
     78 H34        149.2360   129.9080   110.8250 ha         1 A1D       0.109000
     79 H35        148.9300   128.3070   112.7130 ha         1 A1D       0.110000
     80 H36        148.1490   125.9830   112.2600 ha         1 A1D       0.109000
     81 H37        147.6750   125.2590   109.9280 ha         1 A1D       0.109500
     82 H38        147.2900   124.2920   104.5900 h1         1 A1D       0.050200
     83 H39        147.2330   124.1270   106.3370 h1         1 A1D       0.050200
     84 H40        149.3550   122.8230   106.3320 hc         1 A1D       0.071200
     85 H41        149.4700   122.9840   104.5890 hc         1 A1D       0.071200
     86 H42        147.8070   121.8080   103.0720 ha         1 A1D       0.122000
     87 H43        146.3440   119.7760   102.8500 ha         1 A1D       0.119000
     88 H44        145.6470   118.5790   104.9560 ha         1 A1D       0.124000
     89 H45        146.4300   119.4510   107.1690 h4         1 A1D       0.019100
     90 H46        149.3270   131.2220    95.7410 hn         1 A1D       0.389000
     91 H47        149.3990   131.1060    97.3500 hn         1 A1D       0.389000
     92 H49        150.0290   128.3230   100.5220 hn         1 A1D       0.311500
     93 H50        148.4620   124.8040   103.2880 hn         1 A1D       0.317500
     94 C27        149.2140   126.1930   104.5700 c          1 A1D       0.665100
@<TRIPOS>BOND
     1     1    13 1   
     2     1    39 1   
     3     1    45 1   
     4     1    46 1   
     5     2    17 1   
     6     2    18 1   
     7     2    47 1   
     8     2    48 1   
     9     3    18 ar  
    10     3    19 ar  
    11     3    49 1   
    12     4     5 ar  
    13     4    20 ar  
    14     4    22 ar  
    15     5     6 ar  
    16     5    50 1   
    17     6    21 ar  
    18     6    51 1   
    19     7    21 ar  
    20     7    22 ar  
    21     7    52 1   
    22     8     9 1   
    23     8    53 1   
    24     8    54 1   
    25     8    55 1   
    26     9    10 1   
    27     9    12 1   
    28     9    56 1   
    29    10    11 1   
    30    10    57 1   
    31    10    58 1   
    32    11    38 1   
    33    11    59 1   
    34    11    60 1   
    35    12    13 1   
    36    12    61 1   
    37    12    62 1   
    38    13    14 1   
    39    13    15 1   
    40    14    63 1   
    41    14    64 1   
    42    14    65 1   
    43    15    66 1   
    44    15    67 1   
    45    15    68 1   
    46    16    17 1   
    47    16    39 1   
    48    16    43 2   
    49    17    40 1   
    50    17    69 1   
    51    18    22 ar  
    52    19    20 ar  
    53    19    70 1   
    54    20    71 1   
    55    21    72 1   
    56    23    24 1   
    57    23    41 1   
    58    23    73 1   
    59    23    74 1   
    60    24    25 1   
    61    24    75 1   
    62    24    76 1   
    63    25    26 ar  
    64    25    30 ar  
    65    26    27 ar  
    66    26    77 1   
    67    27    28 ar  
    68    27    78 1   
    69    28    29 ar  
    70    28    79 1   
    71    29    30 ar  
    72    29    80 1   
    73    30    81 1   
    74    31    32 1   
    75    31    41 1   
    76    31    82 1   
    77    31    83 1   
    78    32    33 1   
    79    32    84 1   
    80    32    85 1   
    81    33    34 ar  
    82    33    42 ar  
    83    34    35 ar  
    84    34    86 1   
    85    35    36 ar  
    86    35    87 1   
    87    36    37 ar  
    88    36    88 1   
    89    37    42 ar  
    90    37    89 1   
    91    38    90 1   
    92    38    91 1   
    93    39    92 1   
    94    40    93 1   
    95    40    94 1   
    96    41    94 1   
    97    44    94 2   
@<TRIPOS>SUBSTRUCTURE
     1 A1D         1 TEMP              0 ****  ****    0 ROOT
