@<TRIPOS>MOLECULE
A1D
   54    57     1     0     0
SMALL
No Charge or Current Charge


@<TRIPOS>ATOM
      1 O01          6.7230    28.3630    47.1270 o          1 A1D      -0.581100
      2 C02          5.5890    28.1400    46.7270 c          1 A1D       0.621300
      3 C03          5.1140    26.7500    46.4460 ce         1 A1D      -0.304200
      4 C04          5.8430    25.6210    46.6950 cf         1 A1D      -0.072200
      5 C05          5.4890    24.2060    46.4560 ca         1 A1D      -0.080800
      6 C06          4.2330    23.8300    45.9290 ca         1 A1D      -0.084500
      7 C07          3.9270    22.4740    45.7140 ca         1 A1D      -0.115500
      8 C08          4.8680    21.4800    46.0240 ca         1 A1D      -0.094000
      9 C09          6.1190    21.8430    46.5490 ca         1 A1D      -0.115500
     10 C10          6.4260    23.1980    46.7640 ca         1 A1D      -0.084500
     11 N11          4.7200    29.1800    46.4970 ns         1 A1D      -0.335900
     12 C12          3.3510    29.1770    46.2300 ca         1 A1D       0.485900
     13 N13          3.0160    30.0470    45.2630 nb         1 A1D      -0.711000
     14 C14          1.7090    30.1260    44.9270 ca         1 A1D       0.367900
     15 C15          0.7140    29.3510    45.5440 ca         1 A1D      -0.181000
     16 C16          1.0520    28.4430    46.5760 cp         1 A1D       0.023000
     17 C17          0.0210    27.6030    47.2670 cp         1 A1D       0.030000
     18 C18         -1.1530    27.1700    46.6120 ca         1 A1D      -0.226000
     19 C19         -2.0960    26.3800    47.2920 ca         1 A1D       0.636900
     20 N20         -3.2790    25.9250    46.6780 nh         1 A1D      -0.785300
     21 C21         -3.8810    26.6420    45.5140 c6         1 A1D       0.234300
     22 C22         -5.4240    26.5380    45.5300 c6         1 A1D      -0.104900
     23 C23         -5.9230    25.0690    45.4990 c6         1 A1D       0.178300
     24 O24         -6.2700    24.6940    44.1620 oh         1 A1D      -0.657000
     25 C25         -4.8700    24.0820    46.0640 c6         1 A1D      -0.104900
     26 C26         -4.0200    24.7270    47.1830 c6         1 A1D       0.234300
     27 N27         -1.9360    25.9960    48.5690 nb         1 A1D      -0.755000
     28 C28         -0.8210    26.3990    49.2110 ca         1 A1D       0.390900
     29 C29          0.1660    27.1900    48.6090 ca         1 A1D      -0.218000
     30 C30          2.4230    28.3770    46.9170 ca         1 A1D      -0.181000
     31 H031         4.1350    26.6520    45.9910 ha         1 A1D       0.193000
     32 H041         6.8330    25.7580    47.1390 ha         1 A1D       0.193000
     33 H061         3.4840    24.5770    45.6830 ha         1 A1D       0.116000
     34 H071         2.9570    22.1950    45.3090 ha         1 A1D       0.116000
     35 H081         4.6300    20.4320    45.8570 ha         1 A1D       0.114000
     36 H091         6.8500    21.0750    46.7900 ha         1 A1D       0.116000
     37 H101         7.4000    23.4620    47.1710 ha         1 A1D       0.116000
     38 H111         5.1230    30.1020    46.5780 hn         1 A1D       0.171000
     39 H141         1.4520    30.8340    44.1400 h4         1 A1D       0.022100
     40 H151        -0.3180    29.4760    45.2290 ha         1 A1D       0.129000
     41 H181        -1.3150    27.4240    45.5710 ha         1 A1D       0.124000
     42 H211        -3.6150    27.7090    45.5420 h1         1 A1D       0.051450
     43 H212        -3.4930    26.2300    44.5710 h1         1 A1D       0.051450
     44 H221        -5.7960    27.0220    46.4430 hc         1 A1D       0.053450
     45 H222        -5.8480    27.1100    44.6940 hc         1 A1D       0.053450
     46 H231        -6.8210    25.0180    46.1330 h1         1 A1D       0.031700
     47 H241        -6.6690    23.7980    44.2150 ho         1 A1D       0.443000
     48 H251        -5.3700    23.1830    46.4470 hc         1 A1D       0.053450
     49 H252        -4.1960    23.7440    45.2640 hc         1 A1D       0.053450
     50 H262        -4.6720    25.0100    48.0230 h1         1 A1D       0.051450
     51 H261        -3.3150    23.9680    47.5530 h1         1 A1D       0.051450
     52 H281        -0.7180    26.0780    50.2480 h4         1 A1D       0.016100
     53 H291         1.0300    27.4860    49.1950 ha         1 A1D       0.127000
     54 H301         2.7660    27.7110    47.7020 ha         1 A1D       0.139000
@<TRIPOS>BOND
     1     1     2 2   
     2     2     3 1   
     3     2    11 1   
     4     3     4 2   
     5     3    31 1   
     6     4     5 1   
     7     4    32 1   
     8     5     6 ar  
     9     5    10 ar  
    10     6     7 ar  
    11     6    33 1   
    12     7     8 ar  
    13     7    34 1   
    14     8     9 ar  
    15     8    35 1   
    16     9    10 ar  
    17     9    36 1   
    18    10    37 1   
    19    11    12 1   
    20    11    38 1   
    21    12    13 ar  
    22    12    30 ar  
    23    13    14 ar  
    24    14    15 ar  
    25    14    39 1   
    26    15    16 ar  
    27    15    40 1   
    28    16    17 1   
    29    16    30 ar  
    30    17    18 ar  
    31    17    29 ar  
    32    18    19 ar  
    33    18    41 1   
    34    19    20 1   
    35    19    27 ar  
    36    20    21 1   
    37    20    26 1   
    38    21    22 1   
    39    21    42 1   
    40    21    43 1   
    41    22    23 1   
    42    22    44 1   
    43    22    45 1   
    44    23    24 1   
    45    23    25 1   
    46    23    46 1   
    47    24    47 1   
    48    25    26 1   
    49    25    48 1   
    50    25    49 1   
    51    26    50 1   
    52    26    51 1   
    53    27    28 ar  
    54    28    29 ar  
    55    28    52 1   
    56    29    53 1   
    57    30    54 1   
@<TRIPOS>SUBSTRUCTURE
     1 A1D         1 TEMP              0 ****  ****    0 ROOT
