@<TRIPOS>MOLECULE
A1D
   57    58     1     0     0
SMALL
abcg2


@<TRIPOS>ATOM
      1 C10         97.5560   121.3710   122.3680 c5         1 A1D      -0.088700
      2 C13         95.4380   120.2850   122.8770 c5         1 A1D      -0.123400
      3 C15         96.9110   120.8650   121.0710 c5         1 A1D      -0.032500
      4 C17         98.1500   121.2640   118.9520 c2         1 A1D      -0.262200
      5 C21        100.5920   124.3790   118.7770 ca         1 A1D       0.151100
      6 C22         99.9300   125.6080   118.8420 ca         1 A1D      -0.136000
      7 C24        101.8970   126.6410   119.7900 ca         1 A1D      -0.136000
      8 C26        101.9110   124.2800   119.2160 ca         1 A1D      -0.209000
      9 C02         97.5250   128.7070   123.0950 c          1 A1D       0.714000
     10 C04         98.3830   127.8040   122.1840 c3         1 A1D      -0.209400
     11 C05         99.0410   126.6160   122.8680 c3         1 A1D      -0.037400
     12 C06         98.0280   125.5910   123.3850 c3         1 A1D      -0.059200
     13 C07         98.7030   124.4180   124.0260 c2         1 A1D      -0.172200
     14 C09         98.3180   122.6830   122.2170 c3         1 A1D      -0.029200
     15 C11         96.3890   121.3860   123.3770 c5         1 A1D       0.184300
     16 C14         96.0600   119.7150   121.5930 c5         1 A1D       0.173300
     17 C16         97.9190   120.5210   120.0300 c2         1 A1D      -0.181200
     18 C18         99.3100   121.0530   118.0230 c3         1 A1D       0.212500
     19 C19        100.4220   122.0400   118.3370 c3         1 A1D       0.172600
     20 C23        100.5830   126.7180   119.3410 ca         1 A1D      -0.051000
     21 C25        102.5340   125.4160   119.7160 ca         1 A1D       0.157000
     22 O01         96.5970   129.3330   122.5420 o          1 A1D      -0.741000
     23 O03         97.8480   128.7700   124.2990 o          1 A1D      -0.741000
     24 O12         95.6870   122.6140   123.3890 oh         1 A1D      -0.659000
     25 O20         99.8910   123.3510   118.2760 os         1 A1D      -0.333100
     26 O28         98.9550   121.2120   116.6680 oh         1 A1D      -0.647000
     27 O29         95.1330   119.2940   120.6240 oh         1 A1D      -0.649000
     28 CL27       104.1770   125.2830   120.2600 cl         1 A1D      -0.229000
     29 H1          98.2640   120.6050   122.7120 hc         1 A1D       0.038700
     30 H2          94.4710   120.7330   122.6340 hc         1 A1D       0.058200
     31 H3          95.2590   119.5150   123.6290 hc         1 A1D       0.058200
     32 H4          96.2470   121.6510   120.6860 hc         1 A1D       0.087700
     33 H5          97.5200   122.1270   118.7550 ha         1 A1D       0.201000
     34 H6          98.9050   125.6790   118.5020 ha         1 A1D       0.136000
     35 H7         102.4030   127.5100   120.1850 ha         1 A1D       0.133000
     36 H8         102.4590   123.3490   119.1710 ha         1 A1D       0.121000
     37 H9          99.1650   128.4360   121.7450 hc         1 A1D       0.015200
     38 H10         97.7820   127.4570   121.3370 hc         1 A1D       0.015200
     39 H11         99.7150   126.1180   122.1650 hc         1 A1D       0.021200
     40 H12         99.6620   126.9630   123.6980 hc         1 A1D       0.021200
     41 H13         97.3870   125.2760   122.5580 hc         1 A1D       0.058200
     42 H14         97.3790   126.0770   124.1170 hc         1 A1D       0.058200
     43 H15         99.1640   124.6200   124.9900 ha         1 A1D       0.163000
     44 H17         99.3980   122.4640   124.1120 ha         1 A1D       0.148000
     45 H19         99.1610   122.5080   121.5400 hc         1 A1D       0.055700
     46 H20         97.6910   123.4270   121.7210 hc         1 A1D       0.055700
     47 H21         96.7650   121.1600   124.3810 h1         1 A1D       0.032700
     48 H22         96.7380   118.8890   121.8580 h1         1 A1D       0.019700
     49 H23         98.5530   119.6590   120.2350 ha         1 A1D       0.155000
     50 H24         99.7390   120.0570   118.2110 h1         1 A1D       0.028700
     51 H25        101.2520   121.9240   117.6300 h1         1 A1D       0.042700
     52 H26        100.7980   121.8170   119.3410 h1         1 A1D       0.042700
     53 H27        100.0610   127.6640   119.3920 ha         1 A1D       0.137000
     54 H29         96.2460   123.2660   123.8260 ho         1 A1D       0.463000
     55 H30         98.2470   120.5920   116.4690 ho         1 A1D       0.444000
     56 H31         94.6490   118.5400   120.9750 ho         1 A1D       0.436000
     57 C08         98.8430   123.1910   123.5240 c2         1 A1D      -0.284200
@<TRIPOS>BOND
     1     1     3 1   
     2     1    14 1   
     3     1    15 1   
     4     1    29 1   
     5     2    15 1   
     6     2    16 1   
     7     2    30 1   
     8     2    31 1   
     9     3    16 1   
    10     3    17 1   
    11     3    32 1   
    12     4    17 2   
    13     4    18 1   
    14     4    33 1   
    15     5     6 ar  
    16     5     8 ar  
    17     5    25 1   
    18     6    20 ar  
    19     6    34 1   
    20     7    20 ar  
    21     7    21 ar  
    22     7    35 1   
    23     8    21 ar  
    24     8    36 1   
    25     9    10 1   
    26     9    22 1   
    27     9    23 1   
    28    10    11 1   
    29    10    37 1   
    30    10    38 1   
    31    11    12 1   
    32    11    39 1   
    33    11    40 1   
    34    12    13 1   
    35    12    41 1   
    36    12    42 1   
    37    13    43 1   
    38    13    57 2   
    39    14    45 1   
    40    14    46 1   
    41    14    57 1   
    42    15    24 1   
    43    15    47 1   
    44    16    27 1   
    45    16    48 1   
    46    17    49 1   
    47    18    19 1   
    48    18    26 1   
    49    18    50 1   
    50    19    25 1   
    51    19    51 1   
    52    19    52 1   
    53    20    53 1   
    54    21    28 1   
    55    24    54 1   
    56    26    55 1   
    57    27    56 1   
    58    44    57 1   
@<TRIPOS>SUBSTRUCTURE
     1 A1D         1 TEMP              0 ****  ****    0 ROOT
