@<TRIPOS>MOLECULE
A1D
   54    57     1     0     0
SMALL
abcg2


@<TRIPOS>ATOM
      1 O01          6.6250    28.0900    46.7800 o          1 A1D      -0.581100
      2 C02          5.4480    27.9850    46.4750 c          1 A1D       0.621300
      3 C03          4.8230    26.6900    46.1410 ce         1 A1D      -0.304200
      4 C04          5.3990    25.5410    46.5120 cf         1 A1D      -0.072200
      5 C05          4.9220    24.1930    46.2180 ca         1 A1D      -0.080800
      6 C06          3.7510    23.9360    45.4980 ca         1 A1D      -0.084500
      7 C07          3.3560    22.6350    45.2390 ca         1 A1D      -0.115500
      8 C08          4.1200    21.5650    45.6930 ca         1 A1D      -0.094000
      9 C09          5.2820    21.8050    46.4130 ca         1 A1D      -0.115500
     10 C10          5.6770    23.1090    46.6730 ca         1 A1D      -0.084500
     11 N11          4.6690    29.1060    46.3670 ns         1 A1D      -0.335900
     12 C12          3.2850    29.2310    46.2640 ca         1 A1D       0.485900
     13 N13          2.8730    30.2860    45.5750 nb         1 A1D      -0.711000
     14 C14          1.5660    30.4780    45.4570 ca         1 A1D       0.367900
     15 C15          0.6120    29.6320    45.9930 ca         1 A1D      -0.181000
     16 C16          1.0420    28.5360    46.7410 cp         1 A1D       0.023000
     17 C17          0.0780    27.6250    47.3920 cp         1 A1D       0.030000
     18 C18         -1.1160    27.3120    46.7660 ca         1 A1D      -0.226000
     19 C19         -2.0360    26.4580    47.4140 ca         1 A1D       0.636900
     20 N20         -3.2110    26.1170    46.8260 nh         1 A1D      -0.785300
     21 C21         -3.5530    26.6280    45.5100 c6         1 A1D       0.234300
     22 C22         -4.8290    25.9730    44.9870 c6         1 A1D      -0.104900
     23 C23         -4.8380    24.4800    45.2630 c6         1 A1D       0.178300
     24 O24         -3.7160    23.9280    44.6020 oh         1 A1D      -0.657000
     25 C25         -4.8040    24.2440    46.7850 c6         1 A1D      -0.104900
     26 C26         -4.2790    25.4550    47.5520 c6         1 A1D       0.234300
     27 N27         -1.7730    25.9590    48.6260 nb         1 A1D      -0.755000
     28 C28         -0.6240    26.2670    49.2080 ca         1 A1D       0.390900
     29 C29          0.3430    27.0820    48.6520 ca         1 A1D      -0.218000
     30 C30          2.4090    28.3480    46.8940 ca         1 A1D      -0.181000
     31 H031         3.9080    26.6970    45.5630 ha         1 A1D       0.193000
     32 H041         6.3150    25.5910    47.0940 ha         1 A1D       0.193000
     33 H061         3.1380    24.7510    45.1360 ha         1 A1D       0.116000
     34 H071         2.4470    22.4530    44.6800 ha         1 A1D       0.116000
     35 H081         3.8080    20.5490    45.4870 ha         1 A1D       0.114000
     36 H091         5.8810    20.9790    46.7720 ha         1 A1D       0.116000
     37 H101         6.5850    23.2920    47.2350 ha         1 A1D       0.116000
     38 H111         5.1770    29.9810    46.3520 hn         1 A1D       0.171000
     39 H141         1.2590    31.3570    44.9010 h4         1 A1D       0.022100
     40 H151        -0.4380    29.8510    45.8610 ha         1 A1D       0.129000
     41 H181        -1.3310    27.7210    45.7900 ha         1 A1D       0.124000
     42 H211        -3.6800    27.7180    45.5290 h1         1 A1D       0.051450
     43 H212        -2.7370    26.4170    44.8160 h1         1 A1D       0.051450
     44 H221        -5.7120    26.4190    45.4500 hc         1 A1D       0.053450
     45 H222        -4.9090    26.1720    43.9170 hc         1 A1D       0.053450
     46 H231        -5.7620    24.0480    44.8570 h1         1 A1D       0.031700
     47 H241        -3.6750    22.9900    44.8070 ho         1 A1D       0.443000
     48 H251        -5.8080    24.0190    47.1490 hc         1 A1D       0.053450
     49 H252        -4.1920    23.3650    47.0070 hc         1 A1D       0.053450
     50 H262        -5.0920    26.1690    47.7240 h1         1 A1D       0.051450
     51 H261        -3.9110    25.1580    48.5290 h1         1 A1D       0.051450
     52 H281        -0.4630    25.8390    50.1920 h4         1 A1D       0.016100
     53 H291         1.2460    27.3110    49.1990 ha         1 A1D       0.127000
     54 H301         2.7880    27.5360    47.4990 ha         1 A1D       0.139000
@<TRIPOS>BOND
     1     1     2 2   
     2     2     3 1   
     3     2    11 1   
     4     3     4 2   
     5     3    31 1   
     6     4     5 1   
     7     4    32 1   
     8     5     6 ar  
     9     5    10 ar  
    10     6     7 ar  
    11     6    33 1   
    12     7     8 ar  
    13     7    34 1   
    14     8     9 ar  
    15     8    35 1   
    16     9    10 ar  
    17     9    36 1   
    18    10    37 1   
    19    11    12 1   
    20    11    38 1   
    21    12    13 ar  
    22    12    30 ar  
    23    13    14 ar  
    24    14    15 ar  
    25    14    39 1   
    26    15    16 ar  
    27    15    40 1   
    28    16    17 1   
    29    16    30 ar  
    30    17    18 ar  
    31    17    29 ar  
    32    18    19 ar  
    33    18    41 1   
    34    19    20 1   
    35    19    27 ar  
    36    20    21 1   
    37    20    26 1   
    38    21    22 1   
    39    21    42 1   
    40    21    43 1   
    41    22    23 1   
    42    22    44 1   
    43    22    45 1   
    44    23    24 1   
    45    23    25 1   
    46    23    46 1   
    47    24    47 1   
    48    25    26 1   
    49    25    48 1   
    50    25    49 1   
    51    26    50 1   
    52    26    51 1   
    53    27    28 ar  
    54    28    29 ar  
    55    28    52 1   
    56    29    53 1   
    57    30    54 1   
@<TRIPOS>SUBSTRUCTURE
     1 A1D         1 TEMP              0 ****  ****    0 ROOT
