@<TRIPOS>MOLECULE
A1D
   64    66     1     0     0
SMALL
No Charge or Current Charge


@<TRIPOS>ATOM
      1 C08         85.4560   121.5040   110.6520 c3         1 A1D       0.095300
      2 C09         84.6060   122.4390   109.7490 c3         1 A1D      -0.088900
      3 C10         84.8620   121.2760   112.0710 c3         1 A1D      -0.088900
      4 C11         87.3840   123.0590   111.2050 ca         1 A1D      -0.064200
      5 C12         87.9840   121.1860   110.1590 cc         1 A1D       0.402800
      6 C13         89.9210   128.5630   113.7140 c3         1 A1D       0.123700
      7 C14         89.1460   129.8410   113.2870 c3         1 A1D      -0.085400
      8 C15         88.8750   129.9900   111.7610 c3         1 A1D      -0.056700
      9 C16         88.7380   123.0170   111.0200 ca         1 A1D       0.048400
     10 C17         87.8930   119.8480   109.4640 c3         1 A1D      -0.017400
     11 C18         86.7550   124.1440   111.8340 ca         1 A1D      -0.135000
     12 C19         90.1170   128.4310   115.2440 c3         1 A1D      -0.224400
     13 C20         88.9730   125.1830   112.1050 ca         1 A1D      -0.162600
     14 C21         89.5600   124.0650   111.4600 ca         1 A1D       0.002000
     15 C22         83.2390   121.8540   109.3350 c3         1 A1D      -0.089600
     16 C23         85.6690   120.2820   112.9340 c3         1 A1D      -0.089600
     17 C24         87.5600   125.2090   112.2850 ca         1 A1D      -0.069000
     18 C25         89.8680   126.3090   112.5740 c          1 A1D       0.604700
     19 C26         90.1760   130.0170   110.9220 c3         1 A1D      -0.085600
     20 C27         88.0140   131.2410   111.4740 c3         1 A1D      -0.085600
     21 C28         87.0560   119.8490   108.2050 cc         1 A1D      -0.210300
     22 C29         91.0340   129.5430   115.7720 c          1 A1D       0.719000
     23 C30         86.9380   120.8470   107.2700 cd         1 A1D      -0.119000
     24 C31         86.0190   120.5460   106.2310 cd         1 A1D      -0.129000
     25 C32         85.4250   119.3180   106.3650 cc         1 A1D      -0.244000
     26 N05         86.8880   121.8980   110.6690 na         1 A1D      -0.174600
     27 N06         89.1370   121.8540   110.3680 nd         1 A1D      -0.566100
     28 N07         89.2470   127.3640   113.2080 ns         1 A1D      -0.491900
     29 O02         91.0790   126.2890   112.4000 o          1 A1D      -0.610100
     30 O03         90.5200   130.5590   116.2120 o          1 A1D      -0.734000
     31 O04         92.2410   129.3700   115.7060 o          1 A1D      -0.734000
     32 S01         86.0040   118.4920   107.8070 ss         1 A1D       0.169000
     33 H081        85.4170   120.5220   110.1680 h1         1 A1D       0.060700
     34 H092        85.1710   122.6490   108.8320 hc         1 A1D       0.052200
     35 H091        84.4460   123.4040   110.2420 hc         1 A1D       0.052200
     36 H101        84.7770   122.2260   112.6080 hc         1 A1D       0.052200
     37 H102        83.8420   120.8860   111.9750 hc         1 A1D       0.052200
     38 H131        90.9220   128.6160   113.2620 h1         1 A1D       0.101700
     39 H141        89.6990   130.7250   113.6250 hc         1 A1D       0.053700
     40 H142        88.1850   129.8570   113.8160 hc         1 A1D       0.053700
     41 H151        88.2890   129.1240   111.4290 hc         1 A1D       0.026700
     42 H172        87.4950   119.1150   110.1740 hc         1 A1D       0.074200
     43 H171        88.9040   119.5030   109.2170 hc         1 A1D       0.074200
     44 H181        85.6800   124.1820   111.9770 ha         1 A1D       0.112000
     45 H192        89.1220   128.4910   115.7010 hc         1 A1D       0.024700
     46 H191        90.6060   127.4600   115.3870 hc         1 A1D       0.024700
     47 H211        90.6340   124.0070   111.3000 ha         1 A1D       0.152000
     48 H221        82.7370   122.5270   108.6300 hc         1 A1D       0.036033
     49 H222        83.3660   120.8810   108.8460 hc         1 A1D       0.036033
     50 H223        82.5820   121.7260   110.2030 hc         1 A1D       0.036033
     51 H231        85.1620   120.1100   113.8910 hc         1 A1D       0.036033
     52 H232        85.7720   119.3180   112.4220 hc         1 A1D       0.036033
     53 H233        86.6730   120.6700   113.1480 hc         1 A1D       0.036033
     54 H241        87.0690   126.0480   112.7710 ha         1 A1D       0.117000
     55 H263        90.7260   129.0730   111.0140 hc         1 A1D       0.028033
     56 H261        89.9470   130.1620   109.8590 hc         1 A1D       0.028033
     57 H262        90.8330   130.8340   111.2450 hc         1 A1D       0.028033
     58 H271        87.0670   131.1950   112.0260 hc         1 A1D       0.028033
     59 H273        88.5410   132.1560   111.7730 hc         1 A1D       0.028033
     60 H272        87.7780   131.3140   110.4060 hc         1 A1D       0.028033
     61 H301        87.4890   121.7830   107.3220 ha         1 A1D       0.151000
     62 H311        85.8030   121.2260   105.4110 ha         1 A1D       0.134000
     63 H321        84.6920   118.8370   105.7290 h4         1 A1D       0.147000
     64 H071        88.2440   127.3020   113.3180 hn         1 A1D       0.292500
@<TRIPOS>BOND
     1     1     2 1   
     2     1     3 1   
     3     1    26 1   
     4     1    33 1   
     5     2    15 1   
     6     2    34 1   
     7     2    35 1   
     8     3    16 1   
     9     3    36 1   
    10     3    37 1   
    11     4     9 ar  
    12     4    11 ar  
    13     4    26 1   
    14     5    10 1   
    15     5    26 1   
    16     5    27 2   
    17     6     7 1   
    18     6    12 1   
    19     6    28 1   
    20     6    38 1   
    21     7     8 1   
    22     7    39 1   
    23     7    40 1   
    24     8    19 1   
    25     8    20 1   
    26     8    41 1   
    27     9    14 ar  
    28     9    27 1   
    29    10    21 1   
    30    10    42 1   
    31    10    43 1   
    32    11    17 ar  
    33    11    44 1   
    34    12    22 1   
    35    12    45 1   
    36    12    46 1   
    37    13    14 ar  
    38    13    17 ar  
    39    13    18 1   
    40    14    47 1   
    41    15    48 1   
    42    15    49 1   
    43    15    50 1   
    44    16    51 1   
    45    16    52 1   
    46    16    53 1   
    47    17    54 1   
    48    18    28 1   
    49    18    29 2   
    50    19    55 1   
    51    19    56 1   
    52    19    57 1   
    53    20    58 1   
    54    20    59 1   
    55    20    60 1   
    56    21    23 2   
    57    21    32 1   
    58    22    30 1   
    59    22    31 1   
    60    23    24 1   
    61    23    61 1   
    62    24    25 2   
    63    24    62 1   
    64    25    32 1   
    65    25    63 1   
    66    28    64 1   
@<TRIPOS>SUBSTRUCTURE
     1 A1D         1 TEMP              0 ****  ****    0 ROOT
