@<TRIPOS>MOLECULE
A1D
   94    97     1     0     0
SMALL
abcg2


@<TRIPOS>ATOM
      1 C10        151.7930   128.4710   101.2450 c3         1 A1D       0.101000
      2 C15        147.4860   127.8140   101.6790 c3         1 A1D      -0.045100
      3 C17        147.9040   130.0820   102.6190 ca         1 A1D      -0.108000
      4 C20        146.4140   129.6180   104.9170 ca         1 A1D      -0.031000
      5 C21        145.6150   129.3950   106.0640 ca         1 A1D      -0.100000
      6 C22        144.9020   128.2380   106.2100 ca         1 A1D      -0.110000
      7 C24        145.7340   127.4360   104.0930 ca         1 A1D      -0.099000
      8 C01        151.6290   126.6040    97.1790 c3         1 A1D      -0.090100
      9 C02        151.1000   127.4540    98.3370 c3         1 A1D      -0.040700
     10 C03        149.6830   127.9590    98.0280 c3         1 A1D      -0.062400
     11 C04        149.4400   128.6470    96.6880 c3         1 A1D       0.150800
     12 C06        152.1740   128.4880    98.7060 c3         1 A1D      -0.061400
     13 C07        152.1010   129.3230   100.0040 c3         1 A1D      -0.053000
     14 C08        153.5070   129.8970   100.2260 c3         1 A1D      -0.086100
     15 C09        151.1390   130.5100    99.9020 c3         1 A1D      -0.086100
     16 C12        149.9910   126.8760   101.7600 c          1 A1D       0.610100
     17 C14        148.4760   126.6450   101.9060 c3         1 A1D       0.062700
     18 C16        147.3150   128.8490   102.7600 ca         1 A1D      -0.047300
     19 C18        147.8150   131.0770   103.6120 ca         1 A1D      -0.100000
     20 C19        147.1020   130.8410   104.7510 ca         1 A1D      -0.092000
     21 C23        144.9560   127.2540   105.2050 ca         1 A1D      -0.112000
     22 C25        146.5020   128.6130   103.9130 ca         1 A1D      -0.012000
     23 C30        149.0690   125.8220   106.6570 c3         1 A1D       0.120000
     24 C31        148.1150   126.7300   107.4270 c3         1 A1D      -0.057100
     25 C32        148.6290   127.2380   108.7490 ca         1 A1D      -0.061300
     26 C33        148.0070   128.3410   109.3390 ca         1 A1D      -0.112000
     27 C34        148.4280   128.8310   110.5660 ca         1 A1D      -0.107500
     28 C35        149.4900   128.2300   111.2310 ca         1 A1D      -0.116000
     29 C36        150.1200   127.1380   110.6540 ca         1 A1D      -0.107500
     30 C37        149.6930   126.6460   109.4250 ca         1 A1D      -0.112000
     31 C38        147.8360   124.1820   105.2630 c3         1 A1D       0.110000
     32 C39        148.7560   123.0510   104.7810 c3         1 A1D      -0.161700
     33 C40        147.9920   121.7740   104.6000 ca         1 A1D       0.349300
     34 C41        147.5600   121.3730   103.3380 ca         1 A1D      -0.162000
     35 C42        146.8210   120.2070   103.2170 ca         1 A1D      -0.071000
     36 C43        146.5330   119.4780   104.3610 ca         1 A1D      -0.166000
     37 C44        147.0010   119.9590   105.5740 ca         1 A1D       0.341900
     38 N05        150.2040   129.8740    96.5170 n8         1 A1D      -0.993200
     39 N11        150.4050   128.0950   101.3950 ns         1 A1D      -0.480900
     40 N26        148.2360   125.8890   103.1050 ns         1 A1D      -0.517900
     41 N29        148.5250   125.4490   105.3650 n          1 A1D      -0.428800
     42 N45        147.7100   121.0740   105.6980 nb         1 A1D      -0.673000
     43 O13        150.7400   125.9180   101.8870 o          1 A1D      -0.613100
     44 O28        149.4310   127.2890   104.4020 o          1 A1D      -0.635100
     45 H1         152.3930   127.5620   101.2240 h1         1 A1D       0.057200
     46 H2         152.1000   129.0300   102.1360 h1         1 A1D       0.057200
     47 H3         147.7640   128.3100   100.7440 hc         1 A1D       0.048700
     48 H4         146.5230   127.3470   101.4630 hc         1 A1D       0.048700
     49 H5         148.4400   130.3230   101.7080 ha         1 A1D       0.100000
     50 H6         145.5710   130.1650   106.8240 ha         1 A1D       0.112000
     51 H7         144.2920   128.0790   107.0900 ha         1 A1D       0.113000
     52 H8         145.7450   126.6630   103.3380 ha         1 A1D       0.106000
     53 H9         152.5340   126.0700    97.4720 hc         1 A1D       0.031700
     54 H10        150.8950   125.8620    96.8600 hc         1 A1D       0.031700
     55 H11        151.8810   127.2150    96.3090 hc         1 A1D       0.031700
     56 H12        150.9940   126.7730    99.1860 hc         1 A1D       0.048700
     57 H13        149.3240   128.5990    98.8370 hc         1 A1D       0.029700
     58 H14        149.0230   127.0850    98.0450 hc         1 A1D       0.029700
     59 H15        148.3550   128.8010    96.5960 h1         1 A1D       0.023200
     60 H16        149.7100   127.9660    95.8770 h1         1 A1D       0.023200
     61 H17        153.1120   127.9230    98.7650 hc         1 A1D       0.047200
     62 H18        152.2990   129.1820    97.8710 hc         1 A1D       0.047200
     63 H19        153.5310   130.5700   101.0860 hc         1 A1D       0.033200
     64 H20        154.2380   129.1050   100.4020 hc         1 A1D       0.033200
     65 H21        153.8370   130.4620    99.3520 hc         1 A1D       0.033200
     66 H22        151.1610   131.1060   100.8180 hc         1 A1D       0.033200
     67 H23        151.4310   131.1660    99.0800 hc         1 A1D       0.033200
     68 H24        150.1050   130.2190    99.7240 hc         1 A1D       0.033200
     69 H25        148.2620   125.9560   101.0830 h1         1 A1D       0.057700
     70 H26        148.3140   132.0250   103.4600 ha         1 A1D       0.113000
     71 H27        147.0310   131.5950   105.5260 ha         1 A1D       0.114000
     72 H28        144.3760   126.3460   105.3110 ha         1 A1D       0.109000
     73 H29        149.2580   124.9000   107.2100 h1         1 A1D       0.058700
     74 H30        150.0350   126.3100   106.5270 h1         1 A1D       0.058700
     75 H31        147.8580   127.5840   106.7960 hc         1 A1D       0.059700
     76 H32        147.1730   126.1960   107.5910 hc         1 A1D       0.059700
     77 H33        147.1830   128.8210   108.8240 ha         1 A1D       0.109500
     78 H34        147.9280   129.6870   111.0010 ha         1 A1D       0.109000
     79 H35        149.8230   128.6120   112.1870 ha         1 A1D       0.110000
     80 H36        150.9510   126.6620   111.1590 ha         1 A1D       0.109000
     81 H37        150.2070   125.7920   109.0040 ha         1 A1D       0.109500
     82 H38        146.9550   124.2630   104.6210 h1         1 A1D       0.050200
     83 H39        147.4420   123.9290   106.2490 h1         1 A1D       0.050200
     84 H40        149.5490   122.9070   105.5180 hc         1 A1D       0.071200
     85 H41        149.2320   123.3390   103.8420 hc         1 A1D       0.071200
     86 H42        147.8050   121.9680   102.4680 ha         1 A1D       0.122000
     87 H43        146.4790   119.8720   102.2460 ha         1 A1D       0.119000
     88 H44        145.9620   118.5610   104.3190 ha         1 A1D       0.124000
     89 H45        146.7950   119.4160   106.4910 h4         1 A1D       0.019100
     90 H46        149.9560   130.3020    95.6330 hn         1 A1D       0.389000
     91 H47        149.9300   130.5400    97.2280 hn         1 A1D       0.389000
     92 H49        149.7450   128.8490   101.4520 hn         1 A1D       0.311500
     93 H50        147.7090   125.0400   103.0030 hn         1 A1D       0.317500
     94 C27        148.7650   126.2630   104.2990 c          1 A1D       0.665100
@<TRIPOS>BOND
     1     1    13 1   
     2     1    39 1   
     3     1    45 1   
     4     1    46 1   
     5     2    17 1   
     6     2    18 1   
     7     2    47 1   
     8     2    48 1   
     9     3    18 ar  
    10     3    19 ar  
    11     3    49 1   
    12     4     5 ar  
    13     4    20 ar  
    14     4    22 ar  
    15     5     6 ar  
    16     5    50 1   
    17     6    21 ar  
    18     6    51 1   
    19     7    21 ar  
    20     7    22 ar  
    21     7    52 1   
    22     8     9 1   
    23     8    53 1   
    24     8    54 1   
    25     8    55 1   
    26     9    10 1   
    27     9    12 1   
    28     9    56 1   
    29    10    11 1   
    30    10    57 1   
    31    10    58 1   
    32    11    38 1   
    33    11    59 1   
    34    11    60 1   
    35    12    13 1   
    36    12    61 1   
    37    12    62 1   
    38    13    14 1   
    39    13    15 1   
    40    14    63 1   
    41    14    64 1   
    42    14    65 1   
    43    15    66 1   
    44    15    67 1   
    45    15    68 1   
    46    16    17 1   
    47    16    39 1   
    48    16    43 2   
    49    17    40 1   
    50    17    69 1   
    51    18    22 ar  
    52    19    20 ar  
    53    19    70 1   
    54    20    71 1   
    55    21    72 1   
    56    23    24 1   
    57    23    41 1   
    58    23    73 1   
    59    23    74 1   
    60    24    25 1   
    61    24    75 1   
    62    24    76 1   
    63    25    26 ar  
    64    25    30 ar  
    65    26    27 ar  
    66    26    77 1   
    67    27    28 ar  
    68    27    78 1   
    69    28    29 ar  
    70    28    79 1   
    71    29    30 ar  
    72    29    80 1   
    73    30    81 1   
    74    31    32 1   
    75    31    41 1   
    76    31    82 1   
    77    31    83 1   
    78    32    33 1   
    79    32    84 1   
    80    32    85 1   
    81    33    34 ar  
    82    33    42 ar  
    83    34    35 ar  
    84    34    86 1   
    85    35    36 ar  
    86    35    87 1   
    87    36    37 ar  
    88    36    88 1   
    89    37    42 ar  
    90    37    89 1   
    91    38    90 1   
    92    38    91 1   
    93    39    92 1   
    94    40    93 1   
    95    40    94 1   
    96    41    94 1   
    97    44    94 2   
@<TRIPOS>SUBSTRUCTURE
     1 A1D         1 TEMP              0 ****  ****    0 ROOT
