@<TRIPOS>MOLECULE
A1D
  140   144     1     0     0
SMALL
No Charge or Current Charge


@<TRIPOS>ATOM
      1 C14        190.4800   174.2660   201.8830 c3         1 A1D       0.133000
      2 C15        189.3420   175.1670   201.3630 c3         1 A1D      -0.108400
      3 C16        188.1340   175.2450   202.3110 c3         1 A1D       0.165600
      4 C20        186.1480   178.7960   201.3160 c1         1 A1D      -0.161100
      5 C21        186.8980   179.6590   200.9050 cg         1 A1D      -0.083000
      6 C22        187.8350   180.6290   200.4180 ca         1 A1D       0.053000
      7 C23        188.3270   181.6250   201.2690 ca         1 A1D      -0.165000
      8 C24        189.2760   182.5360   200.7920 ca         1 A1D      -0.034000
      9 C25        189.7380   182.4560   199.4580 ca         1 A1D      -0.205600
     10 C26        190.7270   183.4320   198.9480 c          1 A1D       0.592900
     11 C32        190.5450   182.3610   196.6760 cc         1 A1D       0.015000
     12 C35        189.2600   181.4670   198.5930 ca         1 A1D       0.325000
     13 C37        194.8370   177.1010   199.1310 c3         1 A1D      -0.087700
     14 C03        196.8260   175.8240   195.1420 c3         1 A1D       0.157300
     15 C05        194.9490   175.2600   196.5900 c          1 A1D       0.595100
     16 C07        194.5970   174.7420   197.9920 c3         1 A1D      -0.132700
     17 C08        193.7770   173.4280   197.8800 c3         1 A1D      -0.085100
     18 C09        193.9090   175.8870   198.7940 c3         1 A1D       0.196300
     19 C11        192.0960   175.0340   200.0970 c          1 A1D       0.638100
     20 C18        186.1410   176.6090   202.5650 c3         1 A1D       0.166600
     21 C19        185.3220   177.6780   201.8010 c3         1 A1D       0.022700
     22 C28        191.0530   183.3500   197.5110 cd         1 A1D      -0.299400
     23 C29        191.9680   184.3500   196.8830 c          1 A1D       0.724200
     24 C36        188.2960   180.5540   199.0940 ca         1 A1D      -0.165000
     25 C38        196.0360   176.7450   200.0650 c3         1 A1D      -0.075100
     26 C39        194.0070   178.3770   199.5620 c3         1 A1D       0.157300
     27 C41        193.6070   178.0300   201.9540 c6         1 A1D       0.400300
     28 C43        191.0430   178.1480   203.2060 c6         1 A1D       0.189300
     29 C44        189.5680   178.5980   203.1090 c3         1 A1D      -0.092100
     30 C45        191.7260   178.7160   204.5030 c6         1 A1D      -0.138400
     31 C46        193.1370   178.1120   204.8510 c6         1 A1D       0.137500
     32 C50        194.2400   178.6560   203.9090 c6         1 A1D       0.149300
     33 C52        194.2540   179.6570   198.6680 c3         1 A1D       0.196000
     34 C53        193.2340   180.7820   199.0090 c3         1 A1D      -0.129100
     35 C56        195.7220   180.1890   198.8160 c3         1 A1D      -0.052400
     36 C57        196.1980   181.2870   197.8070 c3         1 A1D      -0.158700
     37 C58        197.4850   181.9870   198.3150 c3         1 A1D      -0.083100
     38 C59        196.3890   180.7630   196.3600 c          1 A1D       0.595100
     39 C61        197.4740   179.6820   196.1060 c3         1 A1D      -0.189700
     40 C62        198.6740   180.3280   195.3520 c3         1 A1D      -0.093100
     41 C63        196.8450   178.4130   195.4320 c5         1 A1D       0.090700
     42 C65        197.6250   178.0970   193.2450 c          1 A1D       0.683100
     43 C68        197.7300   177.1110   195.2970 c5         1 A1D       0.169000
     44 C69        198.7920   176.9010   196.4170 c3         1 A1D      -0.081100
     45 N13        191.8060   174.6160   201.3650 ns         1 A1D      -0.510900
     46 N33        189.7250   181.3750   197.2590 na         1 A1D      -0.657200
     47 N47        193.5500   178.2700   206.2840 n3         1 A1D      -0.740600
     48 N64        196.6330   178.6340   194.0070 ns         1 A1D      -0.511900
     49 O04        196.2970   175.4700   196.4430 os         1 A1D      -0.456100
     50 O06        194.1140   175.4870   195.7270 o          1 A1D      -0.473000
     51 O10        193.4120   175.3660   200.0380 os         1 A1D      -0.470100
     52 O12        190.8830   175.1640   198.6620 o          1 A1D      -0.532000
     53 O17        187.1990   176.1470   201.7060 os         1 A1D      -0.444000
     54 O27        191.2100   184.2500   199.7240 o          1 A1D      -0.547100
     55 O30        192.4490   185.2610   197.5360 o          1 A1D      -0.709500
     56 O31        192.2060   184.2390   195.6890 o          1 A1D      -0.709500
     57 O40        194.3110   178.7370   200.9250 os         1 A1D      -0.424000
     58 O42        191.6730   178.5980   201.9900 os         1 A1D      -0.479000
     59 O51        195.5210   178.1570   204.3050 oh         1 A1D      -0.710000
     60 O54        194.0940   179.3030   197.2680 os         1 A1D      -0.482000
     61 O60        195.7390   181.2340   195.4340 o          1 A1D      -0.504100
     62 O66        197.7870   178.2910   192.0550 o          1 A1D      -0.546000
     63 O67        198.4120   177.3230   194.0400 os         1 A1D      -0.438100
     64 H1         190.5330   174.3570   202.9750 h1         1 A1D       0.038200
     65 H2         190.2630   173.2170   201.6440 h1         1 A1D       0.038200
     66 H3         189.7240   176.1820   201.2110 hc         1 A1D       0.078700
     67 H4         189.0020   174.7990   200.3890 hc         1 A1D       0.078700
     68 H5         187.6890   174.2510   202.4490 h1         1 A1D       0.012700
     69 H6         188.4660   175.6240   203.2870 h1         1 A1D       0.012700
     70 H7         187.9820   181.6900   202.2980 ha         1 A1D       0.106000
     71 H8         189.6490   183.3070   201.4640 ha         1 A1D       0.133000
     72 H9         190.7760   182.2690   195.6150 h4         1 A1D       0.222000
     73 H10        188.2170   180.2560   196.2500 h1         1 A1D       0.042033
     74 H11        189.8200   180.2060   195.4750 h1         1 A1D       0.042033
     75 H12        189.5390   179.2710   196.9610 h1         1 A1D       0.042033
     76 H13        195.3140   177.3620   198.1820 hc         1 A1D       0.076700
     77 H19        196.0260   176.0830   194.4360 h1         1 A1D       0.088700
     78 H20        195.5350   174.4930   198.4990 hc         1 A1D       0.080700
     79 H21        193.6110   172.9780   198.8660 hc         1 A1D       0.048367
     80 H22        192.8030   173.6080   197.4100 hc         1 A1D       0.048367
     81 H23        194.3150   172.6930   197.2690 hc         1 A1D       0.048367
     82 H24        193.0820   176.2680   198.1780 h1         1 A1D       0.090700
     83 H25        186.5550   177.0590   203.4780 h1         1 A1D       0.018200
     84 H26        185.4850   175.7790   202.8560 h1         1 A1D       0.018200
     85 H27        184.5380   178.0690   202.4600 hc         1 A1D       0.058700
     86 H28        184.8190   177.2060   200.9480 hc         1 A1D       0.058700
     87 H29        187.8880   179.7660   198.4700 ha         1 A1D       0.116000
     88 H30        196.6200   177.6360   200.3220 hc         1 A1D       0.039367
     89 H31        195.7000   176.2820   201.0000 hc         1 A1D       0.039367
     90 H32        196.7250   176.0480   199.5760 hc         1 A1D       0.039367
     91 H33        192.9380   178.1370   199.5060 h1         1 A1D       0.051700
     92 H34        193.6960   176.9420   201.8480 h2         1 A1D       0.022700
     93 H35        191.0700   177.0500   203.2270 h1         1 A1D       0.016700
     94 H36        188.9730   178.1810   203.9300 hc         1 A1D       0.052700
     95 H37        189.4820   179.6890   203.1530 hc         1 A1D       0.052700
     96 H38        189.1170   178.2630   202.1700 hc         1 A1D       0.052700
     97 H39        191.7930   179.8100   204.4320 hc         1 A1D       0.056700
     98 H40        191.0440   178.5210   205.3400 hc         1 A1D       0.056700
     99 H41        193.0700   177.0340   204.6390 h1         1 A1D       0.050700
    100 H48        194.2340   179.7560   203.9370 h1         1 A1D       0.064700
    101 H49        193.4760   181.2480   199.9710 hc         1 A1D       0.064033
    102 H50        193.2340   181.5640   198.2420 hc         1 A1D       0.064033
    103 H51        192.2150   180.3860   199.0880 hc         1 A1D       0.064033
    104 H55        196.4230   179.3520   198.7770 hc         1 A1D       0.049200
    105 H56        195.8240   180.5950   199.8300 hc         1 A1D       0.049200
    106 H57        195.4260   182.0610   197.7470 hc         1 A1D       0.132700
    107 H58        197.3010   182.4840   199.2750 hc         1 A1D       0.035033
    108 H59        198.3040   181.2710   198.4570 hc         1 A1D       0.035033
    109 H60        197.8160   182.7510   197.6010 hc         1 A1D       0.035033
    110 H61        197.8610   179.3850   197.0850 hc         1 A1D       0.068700
    111 H62        199.1070   181.1440   195.9440 hc         1 A1D       0.044033
    112 H63        199.4720   179.6020   195.1600 hc         1 A1D       0.044033
    113 H64        198.3600   180.7480   194.3900 hc         1 A1D       0.044033
    114 H65        195.9090   178.1710   195.9530 h1         1 A1D       0.100700
    115 H66        198.3220   176.8500   197.4060 hc         1 A1D       0.052367
    116 H67        199.3600   175.9760   196.2710 hc         1 A1D       0.052367
    117 H68        199.5240   177.7130   196.4430 hc         1 A1D       0.052367
    118 H69        192.5950   174.5810   201.9990 hn         1 A1D       0.326500
    119 H71        196.0040   179.3080   193.5870 hn         1 A1D       0.363500
    120 H73        195.3470   177.9390   205.2540 ho         1 A1D       0.522000
    121 C02        197.5280   174.5520   194.5870 c3         1 A1D      -0.082400
    122 C48        193.6340   179.6740   206.7620 c3         1 A1D       0.155600
    123 C01        196.5730   173.3680   194.3210 c3         1 A1D      -0.091100
    124 C49        192.7910   177.4070   207.2220 c3         1 A1D       0.155600
    125 C55        192.7830   178.9490   196.7750 c3         1 A1D       0.148900
    126 C34        189.2980   180.2080   196.4410 c3         1 A1D       0.208100
    127 H14        197.1170   172.5370   193.8570 hc         1 A1D       0.034367
    128 H15        196.1290   173.0010   195.2540 hc         1 A1D       0.034367
    129 H16        195.7630   173.6670   193.6440 hc         1 A1D       0.034367
    130 H17        198.3080   174.2210   195.2820 hc         1 A1D       0.059200
    131 H18        198.0310   174.8000   193.6450 hc         1 A1D       0.059200
    132 H42        194.0360   179.7090   207.7840 h1         1 A1D       0.033033
    133 H43        194.2960   180.2760   206.1270 h1         1 A1D       0.033033
    134 H44        192.6430   180.1470   206.7740 h1         1 A1D       0.033033
    135 H45        193.2480   177.4300   208.2200 h1         1 A1D       0.033033
    136 H46        191.7500   177.7400   207.3200 h1         1 A1D       0.033033
    137 H47        192.7900   176.3640   206.8780 h1         1 A1D       0.033033
    138 H52        192.8600   178.5650   195.7500 h1         1 A1D       0.033700
    139 H53        192.3090   178.1750   197.3890 h1         1 A1D       0.033700
    140 H54        192.1260   179.8260   196.7510 h1         1 A1D       0.033700
@<TRIPOS>BOND
     1     1     2 1   
     2     1    45 1   
     3     1    64 1   
     4     1    65 1   
     5     2     3 1   
     6     2    66 1   
     7     2    67 1   
     8     3    53 1   
     9     3    68 1   
    10     3    69 1   
    11     4     5 3   
    12     4    21 1   
    13     5     6 1   
    14     6     7 ar  
    15     6    24 ar  
    16     7     8 ar  
    17     7    70 1   
    18     8     9 ar  
    19     8    71 1   
    20     9    10 1   
    21     9    12 ar  
    22    10    22 1   
    23    10    54 2   
    24    11    22 2   
    25    11    46 1   
    26    11    72 1   
    27    12    24 ar  
    28    12    46 1   
    29    13    18 1   
    30    13    25 1   
    31    13    26 1   
    32    13    76 1   
    33    14    43 1   
    34    14    49 1   
    35    14    77 1   
    36    14   121 1   
    37    15    16 1   
    38    15    49 1   
    39    15    50 2   
    40    16    17 1   
    41    16    18 1   
    42    16    78 1   
    43    17    79 1   
    44    17    80 1   
    45    17    81 1   
    46    18    51 1   
    47    18    82 1   
    48    19    45 1   
    49    19    51 1   
    50    19    52 2   
    51    20    21 1   
    52    20    53 1   
    53    20    83 1   
    54    20    84 1   
    55    21    85 1   
    56    21    86 1   
    57    22    23 1   
    58    23    55 1   
    59    23    56 1   
    60    24    87 1   
    61    25    88 1   
    62    25    89 1   
    63    25    90 1   
    64    26    33 1   
    65    26    57 1   
    66    26    91 1   
    67    27    32 1   
    68    27    57 1   
    69    27    58 1   
    70    27    92 1   
    71    28    29 1   
    72    28    30 1   
    73    28    58 1   
    74    28    93 1   
    75    29    94 1   
    76    29    95 1   
    77    29    96 1   
    78    30    31 1   
    79    30    97 1   
    80    30    98 1   
    81    31    32 1   
    82    31    47 1   
    83    31    99 1   
    84    32    59 1   
    85    32   100 1   
    86    33    34 1   
    87    33    35 1   
    88    33    60 1   
    89    34   101 1   
    90    34   102 1   
    91    34   103 1   
    92    35    36 1   
    93    35   104 1   
    94    35   105 1   
    95    36    37 1   
    96    36    38 1   
    97    36   106 1   
    98    37   107 1   
    99    37   108 1   
   100    37   109 1   
   101    38    39 1   
   102    38    61 2   
   103    39    40 1   
   104    39    41 1   
   105    39   110 1   
   106    40   111 1   
   107    40   112 1   
   108    40   113 1   
   109    41    43 1   
   110    41    48 1   
   111    41   114 1   
   112    42    48 1   
   113    42    62 2   
   114    42    63 1   
   115    43    44 1   
   116    43    63 1   
   117    44   115 1   
   118    44   116 1   
   119    44   117 1   
   120    45   118 1   
   121    46   126 1   
   122    47   122 1   
   123    47   124 1   
   124    48   119 1   
   125    59   120 1   
   126    60   125 1   
   127    73   126 1   
   128    74   126 1   
   129    75   126 1   
   130   121   123 1   
   131   121   130 1   
   132   121   131 1   
   133   122   132 1   
   134   122   133 1   
   135   122   134 1   
   136   123   127 1   
   137   123   128 1   
   138   123   129 1   
   139   124   135 1   
   140   124   136 1   
   141   124   137 1   
   142   125   138 1   
   143   125   139 1   
   144   125   140 1   
@<TRIPOS>SUBSTRUCTURE
     1 A1D         1 TEMP              0 ****  ****    0 ROOT
