@<TRIPOS>MOLECULE
A1D
   32    34     1     0     0
SMALL
abcg2


@<TRIPOS>ATOM
      1 C10        -17.7720   -64.2720    43.6900 ca         1 A1D      -0.059500
      2 C13        -17.5990   -65.7160    46.0480 ca         1 A1D      -0.172000
      3 C01        -15.9800   -66.5440    41.8050 ca         1 A1D      -0.344000
      4 C02        -15.1270   -66.9800    40.7880 ca         1 A1D       0.164800
      5 C04        -16.8740   -67.5080    39.5310 ca         1 A1D       0.268000
      6 C06        -17.3750   -66.6480    41.5770 ca         1 A1D       0.448900
      7 C08        -19.7290   -66.4950    42.1430 c3         1 A1D       0.230100
      8 C09        -17.9930   -65.6410    43.6770 ca         1 A1D       0.201000
      9 C11        -17.4520   -63.6160    44.8710 ca         1 A1D      -0.172000
     10 C12        -17.3610   -64.3380    46.0600 ca         1 A1D       0.155100
     11 C14        -17.9120   -66.3580    44.8680 ca         1 A1D      -0.059500
     12 C16        -16.8340   -62.4050    47.3280 c3         1 A1D       0.146900
     13 C18        -13.7510   -66.8510    41.1390 cc         1 A1D      -0.294800
     14 C19        -13.6000   -66.3350    42.3820 cd         1 A1D      -0.160400
     15 N03        -15.5790   -67.4740    39.6160 nb         1 A1D      -0.176000
     16 N05        -17.7860   -67.1380    40.4060 nb         1 A1D      -0.274000
     17 N07        -18.3220   -66.3030    42.4640 nh         1 A1D      -0.798100
     18 O15        -17.0580   -63.8000    47.2510 os         1 A1D      -0.336100
     19 S20        -15.0850   -65.9840    43.1740 ss         1 A1D       0.133400
     20 H101       -17.8390   -63.7060    42.7690 ha         1 A1D       0.128500
     21 H131       -17.5310   -66.2760    46.9720 ha         1 A1D       0.130000
     22 H081       -20.3100   -66.3000    43.0390 h1         1 A1D       0.050033
     23 H082       -20.0600   -65.8140    41.3570 h1         1 A1D       0.050033
     24 H083       -19.9210   -67.5170    41.8190 h1         1 A1D       0.050033
     25 H111       -17.2770   -62.5490    44.8400 ha         1 A1D       0.130000
     26 H141       -18.0870   -67.4260    44.8650 ha         1 A1D       0.128500
     27 H162       -16.6250   -62.1840    48.3710 h1         1 A1D       0.044367
     28 H163       -15.9760   -62.0960    46.7240 h1         1 A1D       0.044367
     29 H161       -17.7110   -61.8340    47.0150 h1         1 A1D       0.044367
     30 H181       -12.9370   -67.1330    40.4880 ha         1 A1D       0.222000
     31 H191       -12.6710   -66.1310    42.8940 h4         1 A1D       0.219000
     32 CL17       -17.5160   -68.1320    38.0400 cl         1 A1D      -0.143000
@<TRIPOS>BOND
     1     1     8 ar  
     2     1     9 ar  
     3     1    20 1   
     4     2    10 ar  
     5     2    11 ar  
     6     2    21 1   
     7     3     4 ar  
     8     3     6 ar  
     9     3    19 1   
    10     4    13 1   
    11     4    15 ar  
    12     5    15 ar  
    13     5    16 ar  
    14     5    32 1   
    15     6    16 ar  
    16     6    17 1   
    17     7    17 1   
    18     7    22 1   
    19     7    23 1   
    20     7    24 1   
    21     8    11 ar  
    22     8    17 1   
    23     9    10 ar  
    24     9    25 1   
    25    10    18 1   
    26    11    26 1   
    27    12    18 1   
    28    12    27 1   
    29    12    28 1   
    30    12    29 1   
    31    13    14 2   
    32    13    30 1   
    33    14    19 1   
    34    14    31 1   
@<TRIPOS>SUBSTRUCTURE
     1 A1D         1 TEMP              0 ****  ****    0 ROOT
