@<TRIPOS>MOLECULE
A1D
   21    21     1     0     0
SMALL
abcg2


@<TRIPOS>ATOM
      1 C05         94.4620   119.0890   113.1790 c3         1 A1D       0.001900
      2 C06         95.5340   119.5840   112.2680 cc         1 A1D      -0.229300
      3 C07         93.1390   118.8280   112.4600 c3         1 A1D       0.148800
      4 C08         96.0980   120.8120   112.1420 cd         1 A1D       0.339300
      5 C09         95.7740   122.0160   112.9610 c3         1 A1D      -0.122400
      6 C10         97.2290   119.8310   110.5170 cc         1 A1D       0.696300
      7 N02         97.0510   120.9420   111.1560 nd         1 A1D      -0.728000
      8 N03         92.1410   118.3460   113.4010 n8         1 A1D      -0.998200
      9 N04         98.1460   119.6480   109.5320 nv         1 A1D      -1.033900
     10 S01         96.2370   118.5160   111.0770 ss         1 A1D      -0.139400
     11 H052        94.7870   118.1700   113.6780 hc         1 A1D       0.058700
     12 H051        94.2970   119.8230   113.9700 hc         1 A1D       0.058700
     13 H072        93.3170   118.1440   111.6180 h1         1 A1D       0.032200
     14 H071        92.7870   119.7660   112.0250 h1         1 A1D       0.032200
     15 H093        96.6680   122.3990   113.4570 hc         1 A1D       0.050367
     16 H092        95.3860   122.8200   112.3330 hc         1 A1D       0.050367
     17 H091        95.0310   121.8050   113.7270 hc         1 A1D       0.050367
     18 H1          91.2530   118.2430   112.9270 hn         1 A1D       0.393000
     19 H032        92.3950   117.4150   113.7080 hn         1 A1D       0.393000
     20 H041        97.9880   118.9060   108.8700 hn         1 A1D       0.473000
     21 H042        98.4970   120.4950   109.1120 hn         1 A1D       0.473000
@<TRIPOS>BOND
     1     1     2 1   
     2     1     3 1   
     3     1    11 1   
     4     1    12 1   
     5     2     4 2   
     6     2    10 1   
     7     3     8 1   
     8     3    13 1   
     9     3    14 1   
    10     4     5 1   
    11     4     7 1   
    12     5    15 1   
    13     5    16 1   
    14     5    17 1   
    15     6     7 2   
    16     6     9 1   
    17     6    10 1   
    18     8    18 1   
    19     8    19 1   
    20     9    20 1   
    21     9    21 1   
@<TRIPOS>SUBSTRUCTURE
     1 A1D         1 TEMP              0 ****  ****    0 ROOT
