@<TRIPOS>MOLECULE
A1D
   32    34     1     0     0
SMALL
No Charge or Current Charge


@<TRIPOS>ATOM
      1 C10        -17.4920   -64.4790    43.6510 ca         1 A1D      -0.059500
      2 C13        -18.0900   -65.4680    46.2040 ca         1 A1D      -0.172000
      3 C01        -15.9330   -66.6860    41.7610 ca         1 A1D      -0.344000
      4 C02        -15.1130   -66.7280    40.6540 ca         1 A1D       0.164800
      5 C04        -16.9310   -66.6630    39.2960 ca         1 A1D       0.268000
      6 C06        -17.3250   -66.6240    41.5650 ca         1 A1D       0.448900
      7 C08        -19.5800   -67.2350    42.4580 c3         1 A1D       0.230100
      8 C09        -18.0290   -65.7770    43.7780 ca         1 A1D       0.201000
      9 C11        -17.2540   -63.6810    44.7860 ca         1 A1D      -0.172000
     10 C12        -17.5550   -64.1780    46.0720 ca         1 A1D       0.155100
     11 C14        -18.3270   -66.2620    45.0680 ca         1 A1D      -0.059500
     12 C16        -16.7940   -62.1150    47.1940 c3         1 A1D       0.146900
     13 C18        -13.7150   -66.8120    40.9840 cc         1 A1D      -0.294800
     14 C19        -13.5140   -66.8500    42.3560 cd         1 A1D      -0.160400
     15 N03        -15.5860   -66.7150    39.3980 nb         1 A1D      -0.176000
     16 N05        -17.8230   -66.6210    40.3100 nb         1 A1D      -0.274000
     17 N07        -18.2580   -66.5750    42.6290 nh         1 A1D      -0.798100
     18 O15        -17.3430   -63.4460    47.2220 os         1 A1D      -0.336100
     19 S20        -15.0350   -66.7840    43.2950 ss         1 A1D       0.133400
     20 H101       -17.2600   -64.0860    42.6650 ha         1 A1D       0.128500
     21 H131       -18.3200   -65.8560    47.1940 ha         1 A1D       0.130000
     22 H081       -20.1720   -67.1940    43.3810 h1         1 A1D       0.050033
     23 H082       -20.1660   -66.7390    41.6720 h1         1 A1D       0.050033
     24 H083       -19.4510   -68.2930    42.1940 h1         1 A1D       0.050033
     25 H111       -16.8390   -62.6880    44.6450 ha         1 A1D       0.130000
     26 H141       -18.7270   -67.2650    45.1920 ha         1 A1D       0.128500
     27 H162       -16.7090   -61.7190    48.2140 h1         1 A1D       0.044367
     28 H163       -15.7930   -62.1150    46.7450 h1         1 A1D       0.044367
     29 H161       -17.4400   -61.4390    46.6200 h1         1 A1D       0.044367
     30 H181       -12.9100   -66.8460    40.2530 ha         1 A1D       0.222000
     31 H191       -12.5700   -66.9150    42.8880 h4         1 A1D       0.219000
     32 Cl17       -17.5950   -66.6510    37.6690 cl         1 A1D      -0.143000
@<TRIPOS>BOND
     1     1     8 ar  
     2     1     9 ar  
     3     1    20 1   
     4     2    10 ar  
     5     2    11 ar  
     6     2    21 1   
     7     3     4 ar  
     8     3     6 ar  
     9     3    19 1   
    10     4    13 1   
    11     4    15 ar  
    12     5    15 ar  
    13     5    16 ar  
    14     5    32 1   
    15     6    16 ar  
    16     6    17 1   
    17     7    17 1   
    18     7    22 1   
    19     7    23 1   
    20     7    24 1   
    21     8    11 ar  
    22     8    17 1   
    23     9    10 ar  
    24     9    25 1   
    25    10    18 1   
    26    11    26 1   
    27    12    18 1   
    28    12    27 1   
    29    12    28 1   
    30    12    29 1   
    31    13    14 2   
    32    13    30 1   
    33    14    19 1   
    34    14    31 1   
@<TRIPOS>SUBSTRUCTURE
     1 A1D         1 TEMP              0 ****  ****    0 ROOT
