@<TRIPOS>MOLECULE
A1D
   32    34     1     0     0
SMALL
abcg2


@<TRIPOS>ATOM
      1 C10        -17.9270   -66.2850    44.9220 ca         1 A1D      -0.069000
      2 C13        -17.3380   -63.5750    44.7350 ca         1 A1D      -0.170000
      3 C20        -14.9500   -66.1330    42.9820 cc         1 A1D      -0.133200
      4 C01        -15.7280   -66.4590    41.8210 ca         1 A1D      -0.222800
      5 C02        -14.9140   -66.6960    40.7110 ca         1 A1D       0.153300
      6 C04        -16.6230   -67.2050    39.4300 ca         1 A1D       0.271000
      7 C06        -17.1240   -66.6220    41.5750 ca         1 A1D       0.441900
      8 C08        -19.4750   -66.7370    42.1600 c3         1 A1D       0.224100
      9 C09        -17.8560   -65.6770    43.6720 ca         1 A1D       0.216000
     10 C11        -17.7040   -65.5480    46.0690 ca         1 A1D      -0.170000
     11 C12        -17.4000   -64.1860    45.9860 ca         1 A1D       0.148100
     12 C14        -17.5760   -64.3220    43.5900 ca         1 A1D      -0.069000
     13 C16        -16.8940   -62.1700    47.1290 c3         1 A1D       0.146900
     14 C19        -13.6230   -66.1150    42.7220 cd         1 A1D      -0.200400
     15 N03        -15.3290   -67.0630    39.4950 nb         1 A1D      -0.172000
     16 N05        -17.5270   -67.0140    40.3640 nb         1 A1D      -0.277000
     17 N07        -18.0900   -66.4330    42.4930 nh         1 A1D      -0.789100
     18 O15        -17.1890   -63.5530    47.1500 os         1 A1D      -0.337100
     19 S18        -13.2430   -66.4930    41.0810 ss         1 A1D      -0.083900
     20 H101       -18.1450   -67.3430    44.9960 ha         1 A1D       0.128000
     21 H131       -17.1140   -62.5220    44.6300 ha         1 A1D       0.129000
     22 H201       -15.3440   -65.9310    43.9640 ha         1 A1D       0.212000
     23 H081       -20.0570   -66.7110    43.0770 h1         1 A1D       0.050033
     24 H083       -19.8920   -66.0090    41.4610 h1         1 A1D       0.050033
     25 H082       -19.5620   -67.7280    41.7220 h1         1 A1D       0.050033
     26 H111       -17.7550   -66.0240    47.0400 ha         1 A1D       0.129000
     27 H141       -17.5270   -63.8390    42.6220 ha         1 A1D       0.128000
     28 H161       -16.7650   -61.8670    48.1650 h1         1 A1D       0.044033
     29 H162       -15.9710   -61.9570    46.5840 h1         1 A1D       0.044033
     30 H163       -17.7070   -61.5860    46.6900 h1         1 A1D       0.044033
     31 H191       -12.8280   -65.8990    43.4190 h4         1 A1D       0.220000
     32 CL17       -17.2460   -67.7060    37.8910 cl         1 A1D      -0.136000
@<TRIPOS>BOND
     1     1     9 ar  
     2     1    10 ar  
     3     1    20 1   
     4     2    11 ar  
     5     2    12 ar  
     6     2    21 1   
     7     3     4 1   
     8     3    14 2   
     9     3    22 1   
    10     4     5 ar  
    11     4     7 ar  
    12     5    15 ar  
    13     5    19 1   
    14     6    15 ar  
    15     6    16 ar  
    16     6    32 1   
    17     7    16 ar  
    18     7    17 1   
    19     8    17 1   
    20     8    23 1   
    21     8    24 1   
    22     8    25 1   
    23     9    12 ar  
    24     9    17 1   
    25    10    11 ar  
    26    10    26 1   
    27    11    18 1   
    28    12    27 1   
    29    13    18 1   
    30    13    28 1   
    31    13    29 1   
    32    13    30 1   
    33    14    19 1   
    34    14    31 1   
@<TRIPOS>SUBSTRUCTURE
     1 A1D         1 TEMP              0 ****  ****    0 ROOT
