@<TRIPOS>MOLECULE
A1D
   59    63     1     0     0
SMALL
abcg2


@<TRIPOS>ATOM
      1 N1          -8.8880     4.4390    -1.6000 nc         1 A1D      -0.438300
      2 O1          -8.5670     0.9630    -1.5280 o          1 A1D      -0.534000
      3 C2          -8.0300     2.5010     0.1950 cc         1 A1D      -0.156400
      4 N3          -8.5080     6.5520     1.1970 nc         1 A1D      -0.553100
      5 C4          -8.4500     4.7780    -0.4290 cd         1 A1D       0.338300
      6 C5          -8.5070     2.1150    -1.1230 c          1 A1D       0.525200
      7 C6          -9.4020     2.8600    -3.2640 c3         1 A1D       0.095300
      8 C8          -8.5470     7.9170     1.1760 ca         1 A1D       0.002400
      9 C10         -8.6160    10.5870     0.6940 ca         1 A1D       0.358300
     10 C11         -8.5610     9.7490    -0.4080 ca         1 A1D      -0.148000
     11 C12         -8.5240     8.3830    -0.1430 ca         1 A1D      -0.044200
     12 C13         -8.3370     7.2550    -2.3870 c3         1 A1D       0.145600
     13 C14         -9.6950     7.4910    -3.0270 c3         1 A1D      -0.102100
     14 C15         -7.2340     8.2020    -2.8180 ca         1 A1D      -0.111300
     15 C16         -7.4330     9.1900    -3.7740 ca         1 A1D      -0.094500
     16 C17         -6.3910    10.0290    -4.1540 ca         1 A1D      -0.110000
     17 C1          -7.5900     1.4130     1.1100 c3         1 A1D      -0.043900
     18 C3          -8.0070     3.8120     0.5200 cd         1 A1D      -0.216600
     19 N2          -8.9060     3.1630    -1.9310 n          1 A1D      -0.114800
     20 C7          -8.4630     6.1940    -0.0570 cd         1 A1D       0.388500
     21 C9          -8.6060     8.8470     2.2100 ca         1 A1D       0.409900
     22 N4          -8.6360    10.1400     1.9630 nb         1 A1D      -0.688000
     23 N5          -8.4550     7.2610    -0.9250 na         1 A1D      -0.157600
     24 C18         -5.1370     9.8890    -3.5790 ca         1 A1D      -0.099000
     25 C19         -4.9270     8.8980    -2.6270 ca         1 A1D      -0.110000
     26 C20         -5.9660     8.0600    -2.2550 ca         1 A1D      -0.094500
     27 C21         -8.6410    12.0820     0.5190 c6         1 A1D      -0.103000
     28 C22         -9.8910    12.7150     1.1360 c6         1 A1D      -0.106900
     29 C23         -9.8280    14.2300     1.0270 c6         1 A1D       0.154600
     30 O2          -8.6640    14.7590     1.6220 os         1 A1D      -0.447000
     31 C24         -7.4930    14.2560     1.0180 c6         1 A1D       0.154600
     32 C25         -7.3980    12.7420     1.1240 c6         1 A1D      -0.106900
     33 H7          -9.6470     3.7980    -3.7490 h1         1 A1D       0.059700
     34 H6          -8.6420     2.3390    -3.8450 h1         1 A1D       0.059700
     35 H5         -10.2920     2.2360    -3.2110 h1         1 A1D       0.059700
     36 H10         -8.0140     6.2510    -2.6570 h1         1 A1D       0.087700
     37 H13         -9.6290     7.3890    -4.1090 hc         1 A1D       0.051367
     38 H12        -10.4010     6.7450    -2.6660 hc         1 A1D       0.051367
     39 H11        -10.0950     8.4790    -2.7990 hc         1 A1D       0.051367
     40 H14         -8.4040     9.3250    -4.2320 ha         1 A1D       0.116500
     41 H15         -6.5660    10.7950    -4.8980 ha         1 A1D       0.117000
     42 H2          -8.4020     0.7080     1.2960 hc         1 A1D       0.056033
     43 H1          -6.7700     0.8420     0.6720 hc         1 A1D       0.056033
     44 H3          -7.2580     1.8150     2.0650 hc         1 A1D       0.056033
     45 H4          -7.6560     4.1410     1.4890 ha         1 A1D       0.222000
     46 H8          -8.6260     8.5280     3.2480 h4         1 A1D       0.034100
     47 H16         -4.3270    10.5440    -3.8710 ha         1 A1D       0.116000
     48 H17         -3.9500     8.7760    -2.1770 ha         1 A1D       0.117000
     49 H18         -5.7880     7.2900    -1.5130 ha         1 A1D       0.116500
     50 H19         -8.6480    12.2990    -0.5560 hc         1 A1D       0.044700
     51 H20        -10.7910    12.3580     0.6290 hc         1 A1D       0.059450
     52 H21         -9.9720    12.4210     2.1850 hc         1 A1D       0.059450
     53 H23         -9.8810    14.5230    -0.0330 h1         1 A1D       0.040950
     54 H22        -10.6810    14.6870     1.5340 h1         1 A1D       0.040950
     55 H25         -7.4530    14.5510    -0.0420 h1         1 A1D       0.040950
     56 H24         -6.6460    14.7290     1.5200 h1         1 A1D       0.040950
     57 H26         -7.3010    12.4480     2.1730 hc         1 A1D       0.059450
     58 H27         -6.4960    12.4040     0.6090 hc         1 A1D       0.059450
     59 H9          -8.5490    10.1560    -1.4090 ha         1 A1D       0.133000
@<TRIPOS>BOND
     1     1     5 2   
     2     1    19 1   
     3     2     6 2   
     4     3     6 1   
     5     3    17 1   
     6     3    18 2   
     7     4     8 1   
     8     4    20 2   
     9     5    18 1   
    10     5    20 1   
    11     6    19 1   
    12     7    19 1   
    13     7    33 1   
    14     7    34 1   
    15     7    35 1   
    16     8    11 ar  
    17     8    21 ar  
    18     9    10 ar  
    19     9    22 ar  
    20     9    27 1   
    21    10    11 ar  
    22    10    59 1   
    23    11    23 1   
    24    12    13 1   
    25    12    14 1   
    26    12    23 1   
    27    12    36 1   
    28    13    37 1   
    29    13    38 1   
    30    13    39 1   
    31    14    15 ar  
    32    14    26 ar  
    33    15    16 ar  
    34    15    40 1   
    35    16    24 ar  
    36    16    41 1   
    37    17    42 1   
    38    17    43 1   
    39    17    44 1   
    40    18    45 1   
    41    20    23 1   
    42    21    22 ar  
    43    21    46 1   
    44    24    25 ar  
    45    24    47 1   
    46    25    26 ar  
    47    25    48 1   
    48    26    49 1   
    49    27    28 1   
    50    27    32 1   
    51    27    50 1   
    52    28    29 1   
    53    28    51 1   
    54    28    52 1   
    55    29    30 1   
    56    29    53 1   
    57    29    54 1   
    58    30    31 1   
    59    31    32 1   
    60    31    55 1   
    61    31    56 1   
    62    32    57 1   
    63    32    58 1   
@<TRIPOS>SUBSTRUCTURE
     1 A1D         1 TEMP              0 ****  ****    0 ROOT
