@<TRIPOS>MOLECULE
A1D
   48    52     1     0     0
SMALL
abcg2


@<TRIPOS>ATOM
      1 C1           9.8160    12.1550     6.0310 c3         1 A1D      -0.148400
      2 C2           8.6130    11.5930     5.3370 ca         1 A1D       0.369300
      3 C3           6.8580    10.1030     5.3720 ca         1 A1D       0.431500
      4 C4           6.3830    10.5500     4.1430 ca         1 A1D      -0.145000
      5 C5           7.0900    11.5490     3.4940 ca         1 A1D      -0.066000
      6 C6           8.2220    12.0770     4.0880 ca         1 A1D      -0.161000
      7 C7           6.1790     9.0710     6.1470 cc         1 A1D      -0.234500
      8 C8           5.2620     8.0790     5.8670 cd         1 A1D       0.319500
      9 C9           5.5480     8.0410     7.9870 cc         1 A1D       0.367800
     10 C12          3.3510     9.6560     9.6760 ca         1 A1D      -0.155000
     11 C13          2.2920    10.5560     9.6670 ca         1 A1D      -0.087000
     12 C16          1.7970     7.8800     9.9450 ca         1 A1D       0.107000
     13 C17          4.7320     7.6290     4.5790 cd         1 A1D      -0.159500
     14 C18          3.4150     7.2850     4.4820 cc         1 A1D      -0.040000
     15 C19          3.7150     6.6850     2.1730 cc         1 A1D      -0.064000
     16 C20          1.7530     6.1020     1.7730 cd         1 A1D       0.529200
     17 C22          5.5690     7.4770     3.4380 cd         1 A1D      -0.074000
     18 N1           7.9410    10.6280     5.9510 nb         1 A1D      -0.708000
     19 N2           4.8790     7.4600     7.0220 nd         1 A1D      -0.669000
     20 N3           6.3480     9.0060     7.5020 na         1 A1D      -0.262500
     21 C10          5.4700     7.6770     9.4410 c3         1 A1D       0.186500
     22 N4           4.1430     7.3510     9.8860 nu         1 A1D      -0.920200
     23 C11          3.1300     8.2840     9.8190 ca         1 A1D       0.274000
     24 C14          0.9840    10.1190     9.7910 ca         1 A1D      -0.129000
     25 C15          0.7380     8.7560     9.9310 ca         1 A1D      -0.110000
     26 N5           2.9470     6.8280     3.2970 na         1 A1D       0.291400
     27 N6           2.9530     6.2190     1.1910 nd         1 A1D      -0.401300
     28 N7           1.6870     6.4550     3.0420 nc         1 A1D      -0.597100
     29 C21          5.0790     7.0210     2.2500 cc         1 A1D      -0.101000
     30 H2           9.9760    11.6650     6.9890 hc         1 A1D       0.053367
     31 H3          10.7130    12.0270     5.4230 hc         1 A1D       0.053367
     32 H1           9.7010    13.2260     6.2070 hc         1 A1D       0.053367
     33 H4           5.4740    10.1530     3.7120 ha         1 A1D       0.138000
     34 H5           6.7500    11.9190     2.5350 ha         1 A1D       0.125000
     35 H6           8.7920    12.8590     3.6050 ha         1 A1D       0.127000
     36 H11          4.3580    10.0370     9.5750 ha         1 A1D       0.109000
     37 H12          2.5030    11.6120     9.5560 ha         1 A1D       0.113000
     38 H15          2.7050     7.3540     5.2930 h4         1 A1D       0.177000
     39 H16          0.8780     5.7420     1.2510 h5         1 A1D       0.070800
     40 H18          6.6200     7.7150     3.5230 ha         1 A1D       0.130000
     41 H7           6.9610     9.6110     8.0300 hn         1 A1D       0.373000
     42 H9           6.0990     6.8060     9.6300 h1         1 A1D       0.066200
     43 H8           5.8910     8.4860    10.0440 h1         1 A1D       0.066200
     44 H10          3.8660     6.4040     9.6830 hn         1 A1D       0.488000
     45 H13          0.1600    10.8180     9.7790 ha         1 A1D       0.119000
     46 H14         -0.2700     8.3740    10.0300 ha         1 A1D       0.130000
     47 H17          5.7090     6.8970     1.3820 ha         1 A1D       0.147000
     48 F1           1.5570     6.5590    10.0850 f          1 A1D      -0.187000
@<TRIPOS>BOND
     1     1     2 1   
     2     1    30 1   
     3     1    31 1   
     4     1    32 1   
     5     2     6 ar  
     6     2    18 ar  
     7     3     4 ar  
     8     3     7 1   
     9     3    18 ar  
    10     4     5 ar  
    11     4    33 1   
    12     5     6 ar  
    13     5    34 1   
    14     6    35 1   
    15     7     8 2   
    16     7    20 1   
    17     8    13 1   
    18     8    19 1   
    19     9    19 2   
    20     9    20 1   
    21     9    21 1   
    22    10    11 ar  
    23    10    23 ar  
    24    10    36 1   
    25    11    24 ar  
    26    11    37 1   
    27    12    23 ar  
    28    12    25 ar  
    29    12    48 1   
    30    13    14 2   
    31    13    17 1   
    32    14    26 1   
    33    14    38 1   
    34    15    26 1   
    35    15    27 2   
    36    15    29 1   
    37    16    27 1   
    38    16    28 2   
    39    16    39 1   
    40    17    29 2   
    41    17    40 1   
    42    20    41 1   
    43    21    22 1   
    44    21    42 1   
    45    21    43 1   
    46    22    23 1   
    47    22    44 1   
    48    24    25 ar  
    49    24    45 1   
    50    25    46 1   
    51    26    28 1   
    52    29    47 1   
@<TRIPOS>SUBSTRUCTURE
     1 A1D         1 TEMP              0 ****  ****    0 ROOT
