@<TRIPOS>MOLECULE
A1D
   21    21     1     0     0
SMALL
No Charge or Current Charge


@<TRIPOS>ATOM
      1 C05         94.5940   118.9750   113.1880 c3         1 A1D       0.001900
      2 C06         95.6210   119.4870   112.2080 cc         1 A1D      -0.229300
      3 C07         93.1710   118.9330   112.5880 c3         1 A1D       0.148800
      4 C08         96.0690   120.7850   112.0370 cd         1 A1D       0.339300
      5 C09         95.6020   121.9830   112.8170 c3         1 A1D      -0.122400
      6 C10         97.2790   119.7900   110.5130 cc         1 A1D       0.696300
      7 N02         97.0290   120.9510   111.0490 nd         1 A1D      -0.728000
      8 N03         92.1690   118.4400   113.5580 n8         1 A1D      -0.998200
      9 N04         98.1770   119.7420   109.5260 nv         1 A1D      -1.033900
     10 S01         96.4130   118.4040   111.0970 ss         1 A1D      -0.139400
     11 H052        94.8740   117.9670   113.5180 hc         1 A1D       0.058700
     12 H051        94.5870   119.6030   114.0870 hc         1 A1D       0.058700
     13 H072        93.1630   118.2770   111.7070 h1         1 A1D       0.032200
     14 H071        92.8810   119.9440   112.2690 h1         1 A1D       0.032200
     15 H093        95.9170   121.9120   113.8640 hc         1 A1D       0.050367
     16 H092        96.0070   122.9160   112.4070 hc         1 A1D       0.050367
     17 H091        94.5090   122.0590   112.7980 hc         1 A1D       0.050367
     18 H1          91.2530   118.3880   113.0950 hn         1 A1D       0.393000
     19 H032        92.3770   117.4600   113.7860 hn         1 A1D       0.393000
     20 H041        98.1210   118.9470   108.9010 hn         1 A1D       0.473000
     21 H042        98.4040   120.6350   109.1070 hn         1 A1D       0.473000
@<TRIPOS>BOND
     1     1     2 1   
     2     1     3 1   
     3     1    11 1   
     4     1    12 1   
     5     2     4 2   
     6     2    10 1   
     7     3     8 1   
     8     3    13 1   
     9     3    14 1   
    10     4     5 1   
    11     4     7 1   
    12     5    15 1   
    13     5    16 1   
    14     5    17 1   
    15     6     7 2   
    16     6     9 1   
    17     6    10 1   
    18     8    18 1   
    19     8    19 1   
    20     9    20 1   
    21     9    21 1   
@<TRIPOS>SUBSTRUCTURE
     1 A1D         1 TEMP              0 ****  ****    0 ROOT
