@<TRIPOS>MOLECULE
A1D
   58    63     1     0     0
SMALL
abcg2


@<TRIPOS>ATOM
      1 C          -24.9850     2.2990    28.2730 ca         1 A1D       0.194100
      2 O          -25.1140     1.0180    27.9100 oh         1 A1D      -0.523100
      3 C29        -25.0340     3.9760    22.5320 c          1 A1D       0.615900
      4 C19        -24.3450     3.3050    23.6160 ca         1 A1D      -0.385600
      5 C18        -23.2880     2.3970    23.3760 ca         1 A1D       0.298100
      6 O6         -22.9220     2.1030    22.1370 oh         1 A1D      -0.533100
      7 C17        -22.6190     1.8230    24.4420 ca         1 A1D      -0.313000
      8 C16        -23.0010     2.1230    25.7500 ca         1 A1D       0.245100
      9 O5         -22.3550     1.6150    26.8010 oh         1 A1D      -0.512100
     10 C28        -26.0180     4.9440    22.9330 cc         1 A1D      -0.387200
     11 C21        -26.2770     5.1660    24.2420 cd         1 A1D       0.233900
     12 C22        -27.1700     6.1860    24.7880 ca         1 A1D      -0.130800
     13 C27        -27.4600     7.3350    24.0510 ca         1 A1D      -0.024000
     14 C26        -28.2530     8.3380    24.5730 ca         1 A1D      -0.193500
     15 C25        -28.7800     8.2140    25.8580 ca         1 A1D       0.172100
     16 O8         -29.5330     9.1640    26.4290 oh         1 A1D      -0.517100
     17 C24        -28.5100     7.0640    26.6010 ca         1 A1D      -0.193500
     18 C23        -27.7090     6.0710    26.0750 ca         1 A1D      -0.024000
     19 O7         -25.6810     4.4480    25.2060 os         1 A1D      -0.210200
     20 C20        -24.7020     3.5660    24.9360 ca         1 A1D       0.254100
     21 C15        -24.0790     2.9750    26.0330 cp         1 A1D      -0.186000
     22 C14        -24.5000     3.2950    27.4130 cp         1 A1D      -0.107000
     23 C13        -24.4970     4.6100    27.8580 ca         1 A1D      -0.006000
     24 C3         -24.9500     4.9590    29.1280 ca         1 A1D      -0.133800
     25 C2         -25.3680     3.9430    29.9900 ca         1 A1D      -0.032000
     26 C1         -25.3790     2.6310    29.5700 ca         1 A1D      -0.162000
     27 C4         -25.0710     6.3640    29.5100 cc         1 A1D       0.228900
     28 O3         -25.2900     7.1510    28.4470 os         1 A1D      -0.217200
     29 C12        -25.5290     8.4710    28.5840 ca         1 A1D       0.244100
     30 C7         -25.5250     9.0580    29.8490 ca         1 A1D      -0.378600
     31 C6         -25.2490     8.2560    31.0210 c          1 A1D       0.615900
     32 O4         -25.2200     8.7480    32.1600 o          1 A1D      -0.599100
     33 C5         -25.0200     6.8580    30.7670 cd         1 A1D      -0.386200
     34 C11        -25.7910     9.1800    27.4270 ca         1 A1D      -0.300000
     35 C10        -26.0840    10.5350    27.5500 ca         1 A1D       0.239100
     36 O2         -26.3750    11.2910    26.4860 oh         1 A1D      -0.523100
     37 C9         -26.0870    11.1700    28.7950 ca         1 A1D      -0.244000
     38 C8         -25.8070    10.4430    29.9380 ca         1 A1D       0.282100
     39 O1         -25.8090    11.0500    31.1210 oh         1 A1D      -0.538100
     40 H          -24.9660     0.9050    26.9620 ho         1 A1D       0.477000
     41 H11        -23.5100     2.6160    21.5270 ho         1 A1D       0.529000
     42 H10        -21.7920     1.1480    24.2550 ha         1 A1D       0.142000
     43 H9         -21.6400     1.0290    26.5210 ho         1 A1D       0.481000
     44 H17        -26.5450     5.5010    22.1720 ha         1 A1D       0.220000
     45 H16        -27.0400     7.4750    23.0630 ha         1 A1D       0.129000
     46 H15        -28.4490     9.2270    23.9840 ha         1 A1D       0.130500
     47 H14        -29.6550     9.9100    25.8300 ho         1 A1D       0.472000
     48 H13        -28.9190     6.9600    27.5970 ha         1 A1D       0.130500
     49 H12        -27.5130     5.1960    26.6800 ha         1 A1D       0.129000
     50 H8         -24.1260     5.3760    27.1900 ha         1 A1D       0.129000
     51 H2         -25.7350     4.1790    30.9800 ha         1 A1D       0.125000
     52 H1         -25.7410     1.8520    30.2290 ha         1 A1D       0.136000
     53 H3         -24.8060     6.1990    31.5980 ha         1 A1D       0.219000
     54 H7         -25.7890     8.6830    26.4650 ha         1 A1D       0.137000
     55 H6         -26.3490    10.7700    25.6750 ho         1 A1D       0.470000
     56 H5         -26.3120    12.2270    28.8650 ha         1 A1D       0.151000
     57 H4         -25.5900    10.3690    31.8030 ho         1 A1D       0.525000
     58 O9         -24.7660     3.7350    21.3440 o          1 A1D      -0.596100
@<TRIPOS>BOND
     1     1     2 1   
     2     1    22 ar  
     3     1    26 ar  
     4     2    40 1   
     5     3     4 1   
     6     3    10 1   
     7     3    58 2   
     8     4     5 ar  
     9     4    20 ar  
    10     5     6 1   
    11     5     7 ar  
    12     6    41 1   
    13     7     8 ar  
    14     7    42 1   
    15     8     9 1   
    16     8    21 ar  
    17     9    43 1   
    18    10    11 2   
    19    10    44 1   
    20    11    12 1   
    21    11    19 1   
    22    12    13 ar  
    23    12    18 ar  
    24    13    14 ar  
    25    13    45 1   
    26    14    15 ar  
    27    14    46 1   
    28    15    16 1   
    29    15    17 ar  
    30    16    47 1   
    31    17    18 ar  
    32    17    48 1   
    33    18    49 1   
    34    19    20 1   
    35    20    21 ar  
    36    21    22 1   
    37    22    23 ar  
    38    23    24 ar  
    39    23    50 1   
    40    24    25 ar  
    41    24    27 1   
    42    25    26 ar  
    43    25    51 1   
    44    26    52 1   
    45    27    28 1   
    46    27    33 2   
    47    28    29 1   
    48    29    30 ar  
    49    29    34 ar  
    50    30    31 1   
    51    30    38 ar  
    52    31    32 2   
    53    31    33 1   
    54    33    53 1   
    55    34    35 ar  
    56    34    54 1   
    57    35    36 1   
    58    35    37 ar  
    59    36    55 1   
    60    37    38 ar  
    61    37    56 1   
    62    38    39 1   
    63    39    57 1   
@<TRIPOS>SUBSTRUCTURE
     1 A1D         1 TEMP              0 ****  ****    0 ROOT
