@<TRIPOS>MOLECULE
A1D
   58    63     1     0     0
SMALL
No Charge or Current Charge


@<TRIPOS>ATOM
      1 C          -25.0030     2.2490    28.3470 ca         1 A1D       0.194100
      2 O          -24.9970     0.9230    28.0480 oh         1 A1D      -0.523100
      3 C29        -24.8900     3.9820    22.4690 c          1 A1D       0.615900
      4 C19        -24.2560     3.2290    23.5820 ca         1 A1D      -0.385600
      5 C18        -23.2650     2.2660    23.3660 ca         1 A1D       0.298100
      6 O6         -22.8500     1.9720    22.1110 oh         1 A1D      -0.533100
      7 C17        -22.6890     1.5920    24.4430 ca         1 A1D      -0.313000
      8 C16        -23.0910     1.8760    25.7520 ca         1 A1D       0.245100
      9 O5         -22.5020     1.1890    26.7670 oh         1 A1D      -0.512100
     10 C28        -25.8550     4.9980    22.8580 cc         1 A1D      -0.387200
     11 C21        -26.2200     5.2090    24.1680 cd         1 A1D       0.233900
     12 C22        -27.1510     6.2420    24.6860 ca         1 A1D      -0.130800
     13 C27        -27.7410     7.1950    23.8220 ca         1 A1D      -0.024000
     14 C26        -28.6170     8.1750    24.3230 ca         1 A1D      -0.193500
     15 C25        -28.9180     8.2170    25.6900 ca         1 A1D       0.172100
     16 O8         -29.7670     9.1630    26.1810 oh         1 A1D      -0.517100
     17 C24        -28.3460     7.2820    26.5580 ca         1 A1D      -0.193500
     18 C23        -27.4700     6.3010    26.0650 ca         1 A1D      -0.024000
     19 O7         -25.6650     4.4130    25.1310 os         1 A1D      -0.210200
     20 C20        -24.6620     3.5050    24.8930 ca         1 A1D       0.254100
     21 C15        -24.0900     2.8460    26.0140 cp         1 A1D      -0.186000
     22 C14        -24.5310     3.2080    27.4120 cp         1 A1D      -0.107000
     23 C13        -24.5450     4.5700    27.8050 ca         1 A1D      -0.006000
     24 C3         -25.0400     4.9840    29.0580 ca         1 A1D      -0.133800
     25 C2         -25.5220     4.0070    29.9530 ca         1 A1D      -0.032000
     26 C1         -25.4940     2.6490    29.5980 ca         1 A1D      -0.162000
     27 C4         -25.0960     6.4130    29.3820 cc         1 A1D       0.228900
     28 O3         -25.1550     7.3120    28.3310 os         1 A1D      -0.217200
     29 C12        -25.4950     8.6160    28.6520 ca         1 A1D       0.244100
     30 C7         -25.4370     9.1430    29.9510 ca         1 A1D      -0.378600
     31 C6         -25.0540     8.2400    31.0460 c          1 A1D       0.615900
     32 O4         -24.8900     8.6350    32.1930 o          1 A1D      -0.599100
     33 C5         -24.9330     6.8500    30.6760 cd         1 A1D      -0.386200
     34 C11        -25.8470     9.4530    27.5840 ca         1 A1D      -0.300000
     35 C10        -26.1650    10.7940    27.8090 ca         1 A1D       0.239100
     36 O2         -26.5110    11.5970    26.7700 oh         1 A1D      -0.523100
     37 C9         -26.1170    11.3160    29.1020 ca         1 A1D      -0.244000
     38 C8         -25.7500    10.4940    30.1690 ca         1 A1D       0.282100
     39 O1         -25.6990    11.0210    31.4180 oh         1 A1D      -0.538100
     40 H          -24.2810     0.8030    27.3830 ho         1 A1D       0.477000
     41 H11        -23.3880     2.5560    21.5170 ho         1 A1D       0.529000
     42 H10        -21.9250     0.8450    24.2490 ha         1 A1D       0.142000
     43 H9         -21.7290     0.7090    26.4000 ho         1 A1D       0.481000
     44 H17        -26.2650     5.5650    22.0350 ha         1 A1D       0.220000
     45 H16        -27.5250     7.1930    22.7570 ha         1 A1D       0.129000
     46 H15        -29.0550     8.8970    23.6390 ha         1 A1D       0.130500
     47 H14        -30.0900     9.7080    25.4330 ho         1 A1D       0.472000
     48 H13        -28.5780     7.3150    27.6200 ha         1 A1D       0.130500
     49 H12        -27.0470     5.5880    26.7680 ha         1 A1D       0.129000
     50 H8         -24.1750     5.3170    27.1060 ha         1 A1D       0.129000
     51 H2         -25.9350     4.2920    30.9180 ha         1 A1D       0.125000
     52 H1         -25.8640     1.9020    30.2950 ha         1 A1D       0.136000
     53 H3         -24.7380     6.1810    31.5020 ha         1 A1D       0.219000
     54 H7         -25.8720     9.0430    26.5780 ha         1 A1D       0.137000
     55 H6         -26.4960    11.0550    25.9540 ho         1 A1D       0.470000
     56 H5         -26.3590    12.3600    29.2770 ha         1 A1D       0.151000
     57 H4         -25.3890    10.2800    32.0000 ho         1 A1D       0.525000
     58 O9         -24.5950     3.7710    21.3010 o          1 A1D      -0.596100
@<TRIPOS>BOND
     1     1     2 1   
     2     1    22 ar  
     3     1    26 ar  
     4     2    40 1   
     5     3     4 1   
     6     3    10 1   
     7     3    58 2   
     8     4     5 ar  
     9     4    20 ar  
    10     5     6 1   
    11     5     7 ar  
    12     6    41 1   
    13     7     8 ar  
    14     7    42 1   
    15     8     9 1   
    16     8    21 ar  
    17     9    43 1   
    18    10    11 2   
    19    10    44 1   
    20    11    12 1   
    21    11    19 1   
    22    12    13 ar  
    23    12    18 ar  
    24    13    14 ar  
    25    13    45 1   
    26    14    15 ar  
    27    14    46 1   
    28    15    16 1   
    29    15    17 ar  
    30    16    47 1   
    31    17    18 ar  
    32    17    48 1   
    33    18    49 1   
    34    19    20 1   
    35    20    21 ar  
    36    21    22 1   
    37    22    23 ar  
    38    23    24 ar  
    39    23    50 1   
    40    24    25 ar  
    41    24    27 1   
    42    25    26 ar  
    43    25    51 1   
    44    26    52 1   
    45    27    28 1   
    46    27    33 2   
    47    28    29 1   
    48    29    30 ar  
    49    29    34 ar  
    50    30    31 1   
    51    30    38 ar  
    52    31    32 2   
    53    31    33 1   
    54    33    53 1   
    55    34    35 ar  
    56    34    54 1   
    57    35    36 1   
    58    35    37 ar  
    59    36    55 1   
    60    37    38 ar  
    61    37    56 1   
    62    38    39 1   
    63    39    57 1   
@<TRIPOS>SUBSTRUCTURE
     1 A1D         1 TEMP              0 ****  ****    0 ROOT
