@<TRIPOS>MOLECULE
A1D
   48    52     1     0     0
SMALL
No Charge or Current Charge


@<TRIPOS>ATOM
      1 C1           8.4470    12.3480     5.9420 c3         1 A1D      -0.148400
      2 C2           7.1970    11.7070     5.3710 ca         1 A1D       0.369300
      3 C3           5.7110     9.9270     5.4580 ca         1 A1D       0.431500
      4 C4           4.9240    10.4860     4.4310 ca         1 A1D      -0.145000
      5 C5           5.3210    11.6940     3.8370 ca         1 A1D      -0.066000
      6 C6           6.4860    12.3100     4.3180 ca         1 A1D      -0.161000
      7 C7           5.2870     8.7130     6.1440 cc         1 A1D      -0.234500
      8 C8           4.9090     7.5080     5.5840 cd         1 A1D       0.319500
      9 C9           4.5560     7.3390     7.7250 cc         1 A1D       0.367800
     10 C12          4.4380     9.4660    10.6740 ca         1 A1D      -0.155000
     11 C13          4.5740    10.8150    11.0500 ca         1 A1D      -0.087000
     12 C16          2.1310     9.8860    10.0240 ca         1 A1D       0.107000
     13 C17          5.0170     7.1090     4.1860 cd         1 A1D      -0.159500
     14 C18          4.3180     5.9330     3.8610 cc         1 A1D      -0.040000
     15 C19          5.1110     6.1910     1.5870 cc         1 A1D      -0.064000
     16 C20          4.1280     4.4810     0.7730 cd         1 A1D       0.529200
     17 C22          5.8280     7.8120     3.2020 cd         1 A1D      -0.074000
     18 N1           6.8120    10.5450     5.9420 nb         1 A1D      -0.708000
     19 N2           4.4000     6.6890     6.5780 nd         1 A1D      -0.669000
     20 N3           5.1420     8.5620     7.5070 na         1 A1D      -0.262500
     21 C10          4.1470     6.8220     9.1020 c3         1 A1D       0.186500
     22 N4           3.0920     7.6440     9.7650 nu         1 A1D      -0.920200
     23 C11          3.2200     8.9890    10.1530 ca         1 A1D       0.274000
     24 C14          3.4910    11.6990    10.9100 ca         1 A1D      -0.129000
     25 C15          2.2670    11.2340    10.3990 ca         1 A1D      -0.110000
     26 N5           4.3880     5.5270     2.5270 na         1 A1D       0.291400
     27 N6           4.9700     5.5470     0.4500 nd         1 A1D      -0.401300
     28 N7           3.7500     4.4390     2.0540 nc         1 A1D      -0.597100
     29 C21          5.8600     7.3500     1.9090 cc         1 A1D      -0.101000
     30 H2           8.2160    12.8970     6.8620 hc         1 A1D       0.053367
     31 H3           9.2080    11.5950     6.1800 hc         1 A1D       0.053367
     32 H1           8.8930    13.0540     5.2320 hc         1 A1D       0.053367
     33 H4           4.0180     9.9840     4.1050 ha         1 A1D       0.138000
     34 H5           4.7380    12.1420     3.0350 ha         1 A1D       0.125000
     35 H6           6.8280    13.2490     3.8910 ha         1 A1D       0.127000
     36 H11          5.2820     8.7930    10.8010 ha         1 A1D       0.109000
     37 H12          5.5200    11.1740    11.4520 ha         1 A1D       0.113000
     38 H15          3.7140     5.3300     4.5250 h4         1 A1D       0.177000
     39 H16          3.8210     3.7570     0.0270 h5         1 A1D       0.070800
     40 H18          6.4490     8.6620     3.4510 ha         1 A1D       0.130000
     41 H7           5.3510     9.2480     8.2210 hn         1 A1D       0.373000
     42 H9           3.7850     5.7910     8.9830 h1         1 A1D       0.066200
     43 H8           5.0440     6.7680     9.7330 h1         1 A1D       0.066200
     44 H10          2.1300     7.3840     9.5270 hn         1 A1D       0.488000
     45 H13          3.5990    12.7420    11.2010 ha         1 A1D       0.119000
     46 H14          1.4260    11.9140    10.2910 ha         1 A1D       0.130000
     47 H17          6.4510     7.8420     1.1420 ha         1 A1D       0.147000
     48 F1           0.9440     9.4580     9.5290 f          1 A1D      -0.187000
@<TRIPOS>BOND
     1     1     2 1   
     2     1    30 1   
     3     1    31 1   
     4     1    32 1   
     5     2     6 ar  
     6     2    18 ar  
     7     3     4 ar  
     8     3     7 1   
     9     3    18 ar  
    10     4     5 ar  
    11     4    33 1   
    12     5     6 ar  
    13     5    34 1   
    14     6    35 1   
    15     7     8 2   
    16     7    20 1   
    17     8    13 1   
    18     8    19 1   
    19     9    19 2   
    20     9    20 1   
    21     9    21 1   
    22    10    11 ar  
    23    10    23 ar  
    24    10    36 1   
    25    11    24 ar  
    26    11    37 1   
    27    12    23 ar  
    28    12    25 ar  
    29    12    48 1   
    30    13    14 2   
    31    13    17 1   
    32    14    26 1   
    33    14    38 1   
    34    15    26 1   
    35    15    27 2   
    36    15    29 1   
    37    16    27 1   
    38    16    28 2   
    39    16    39 1   
    40    17    29 2   
    41    17    40 1   
    42    20    41 1   
    43    21    22 1   
    44    21    42 1   
    45    21    43 1   
    46    22    23 1   
    47    22    44 1   
    48    24    25 ar  
    49    24    45 1   
    50    25    46 1   
    51    26    28 1   
    52    29    47 1   
@<TRIPOS>SUBSTRUCTURE
     1 A1D         1 TEMP              0 ****  ****    0 ROOT
