@<TRIPOS>MOLECULE
A1D
   59    63     1     0     0
SMALL
No Charge or Current Charge


@<TRIPOS>ATOM
      1 N1          -8.5830     4.3340    -1.7090 nc         1 A1D      -0.438300
      2 O1          -8.4960     0.7320    -1.6080 o          1 A1D      -0.534000
      3 C2          -8.3600     2.2870     0.2190 cc         1 A1D      -0.156400
      4 N3          -8.4370     6.4270     1.3220 nc         1 A1D      -0.553100
      5 C4          -8.4630     4.6650    -0.4190 cd         1 A1D       0.338300
      6 C5          -8.4840     1.8930    -1.2110 c          1 A1D       0.525200
      7 C6          -8.7240     2.7660    -3.5340 c3         1 A1D       0.095300
      8 C8          -8.5380     7.8100     1.2730 ca         1 A1D       0.002400
      9 C10         -8.8000    10.5120     0.8310 ca         1 A1D       0.358300
     10 C11         -8.7790     9.6300    -0.2700 ca         1 A1D      -0.148000
     11 C12         -8.6230     8.2610    -0.0080 ca         1 A1D      -0.044200
     12 C13         -8.2480     7.3140    -2.3250 c3         1 A1D       0.145600
     13 C14         -9.5670     7.3960    -3.1260 c3         1 A1D      -0.102100
     14 C15         -7.2130     8.4140    -2.6430 ca         1 A1D      -0.111300
     15 C16         -7.4500     9.4450    -3.5860 ca         1 A1D      -0.094500
     16 C17         -6.4810    10.4360    -3.8190 ca         1 A1D      -0.110000
     17 C1          -8.2480     1.1450     1.2040 c3         1 A1D      -0.043900
     18 C3          -8.3540     3.6250     0.5900 cd         1 A1D      -0.216600
     19 N2          -8.5900     3.0030    -2.0810 n          1 A1D      -0.114800
     20 C7          -8.4680     6.0700     0.0120 cd         1 A1D       0.388500
     21 C9          -8.5720     8.7430     2.3360 ca         1 A1D       0.409900
     22 N4          -8.6910    10.0810     2.1180 nb         1 A1D      -0.688000
     23 N5          -8.5320     7.1910    -0.8680 na         1 A1D      -0.157600
     24 C18         -5.2620    10.4110    -3.1240 ca         1 A1D      -0.099000
     25 C19         -5.0100     9.3900    -2.1960 ca         1 A1D      -0.110000
     26 C20         -5.9770     8.3980    -1.9610 ca         1 A1D      -0.094500
     27 C21         -8.9000    12.0300     0.5840 c6         1 A1D      -0.103000
     28 C22         -9.4110    12.8690     1.7970 c6         1 A1D      -0.106900
     29 C23         -9.4390    14.3760     1.4470 c6         1 A1D       0.154600
     30 O2          -8.1290    14.8040     1.0160 os         1 A1D      -0.447000
     31 C24         -7.6570    14.1340    -0.1730 c6         1 A1D       0.154600
     32 C25         -7.5460    12.6110     0.0840 c6         1 A1D      -0.106900
     33 H7          -8.8030     3.7160    -4.0760 h1         1 A1D       0.059700
     34 H6          -7.8470     2.2190    -3.9000 h1         1 A1D       0.059700
     35 H5          -9.6260     2.1710    -3.7270 h1         1 A1D       0.059700
     36 H10         -7.7490     6.3950    -2.6470 h1         1 A1D       0.087700
     37 H13         -9.3710     7.3620    -4.2040 hc         1 A1D       0.051367
     38 H12        -10.2170     6.5480    -2.8800 hc         1 A1D       0.051367
     39 H11        -10.1120     8.3190    -2.8930 hc         1 A1D       0.051367
     40 H14         -8.3840     9.5020    -4.1390 ha         1 A1D       0.116500
     41 H15         -6.6770    11.2260    -4.5400 ha         1 A1D       0.117000
     42 H2          -9.1300     0.4960     1.1570 hc         1 A1D       0.056033
     43 H1          -7.3630     0.5310     0.9950 hc         1 A1D       0.056033
     44 H3          -8.1600     1.5110     2.2340 hc         1 A1D       0.056033
     45 H4          -8.2650     3.8950     1.6380 ha         1 A1D       0.222000
     46 H8          -8.5020     8.4150     3.3730 h4         1 A1D       0.034100
     47 H16         -4.5150    11.1800    -3.3050 ha         1 A1D       0.116000
     48 H17         -4.0660     9.3660    -1.6570 ha         1 A1D       0.117000
     49 H18         -5.7650     7.6150    -1.2350 ha         1 A1D       0.116500
     50 H19         -9.6310    12.1680    -0.2250 hc         1 A1D       0.044700
     51 H20        -10.4170    12.5390     2.0910 hc         1 A1D       0.059450
     52 H21         -8.7610    12.7220     2.6700 hc         1 A1D       0.059450
     53 H23        -10.1680    14.5710     0.6460 h1         1 A1D       0.040950
     54 H22         -9.7340    14.9620     2.3290 h1         1 A1D       0.040950
     55 H25         -8.3530    14.3310    -1.0020 h1         1 A1D       0.040950
     56 H24         -6.6740    14.5410    -0.4480 h1         1 A1D       0.040950
     57 H26         -6.7590    12.4220     0.8270 hc         1 A1D       0.059450
     58 H27         -7.2310    12.1050    -0.8390 hc         1 A1D       0.059450
     59 H9          -8.8690    10.0150    -1.2790 ha         1 A1D       0.133000
@<TRIPOS>BOND
     1     1     5 2   
     2     1    19 1   
     3     2     6 2   
     4     3     6 1   
     5     3    17 1   
     6     3    18 2   
     7     4     8 1   
     8     4    20 2   
     9     5    18 1   
    10     5    20 1   
    11     6    19 1   
    12     7    19 1   
    13     7    33 1   
    14     7    34 1   
    15     7    35 1   
    16     8    11 ar  
    17     8    21 ar  
    18     9    10 ar  
    19     9    22 ar  
    20     9    27 1   
    21    10    11 ar  
    22    10    59 1   
    23    11    23 1   
    24    12    13 1   
    25    12    14 1   
    26    12    23 1   
    27    12    36 1   
    28    13    37 1   
    29    13    38 1   
    30    13    39 1   
    31    14    15 ar  
    32    14    26 ar  
    33    15    16 ar  
    34    15    40 1   
    35    16    24 ar  
    36    16    41 1   
    37    17    42 1   
    38    17    43 1   
    39    17    44 1   
    40    18    45 1   
    41    20    23 1   
    42    21    22 ar  
    43    21    46 1   
    44    24    25 ar  
    45    24    47 1   
    46    25    26 ar  
    47    25    48 1   
    48    26    49 1   
    49    27    28 1   
    50    27    32 1   
    51    27    50 1   
    52    28    29 1   
    53    28    51 1   
    54    28    52 1   
    55    29    30 1   
    56    29    53 1   
    57    29    54 1   
    58    30    31 1   
    59    31    32 1   
    60    31    55 1   
    61    31    56 1   
    62    32    57 1   
    63    32    58 1   
@<TRIPOS>SUBSTRUCTURE
     1 A1D         1 TEMP              0 ****  ****    0 ROOT
