@<TRIPOS>MOLECULE
A1D
  140   144     1     0     0
SMALL
abcg2


@<TRIPOS>ATOM
      1 C14        190.2630   174.3780   201.5250 c3         1 A1D       0.133000
      2 C15        189.2560   175.4660   201.1440 c3         1 A1D      -0.108400
      3 C16        188.1080   175.5180   202.1330 c3         1 A1D       0.165600
      4 C20        186.0230   178.9880   201.4920 c1         1 A1D      -0.161100
      5 C21        186.6970   179.8930   201.0680 cg         1 A1D      -0.083000
      6 C22        187.5680   180.8990   200.5590 ca         1 A1D       0.053000
      7 C23        187.8770   182.0370   201.3220 ca         1 A1D      -0.165000
      8 C24        188.7770   182.9550   200.8390 ca         1 A1D      -0.034000
      9 C25        189.4050   182.7870   199.5980 ca         1 A1D      -0.205600
     10 C26        190.3970   183.7850   199.1430 c          1 A1D       0.592900
     11 C32        190.6590   182.3330   197.2270 cc         1 A1D       0.015000
     12 C35        189.0760   181.6590   198.8300 ca         1 A1D       0.325000
     13 C37        194.8250   177.0060   199.2010 c3         1 A1D      -0.087700
     14 C03        197.0460   175.7390   195.2920 c3         1 A1D       0.157300
     15 C05        195.1440   175.2630   196.6790 c          1 A1D       0.595100
     16 C07        194.7480   174.7120   198.0320 c3         1 A1D      -0.132700
     17 C08        193.9410   173.4310   197.8100 c3         1 A1D      -0.085100
     18 C09        193.9650   175.8070   198.7790 c3         1 A1D       0.196300
     19 C11        192.0470   175.0110   199.9640 c          1 A1D       0.638100
     20 C18        186.1930   176.7990   202.6160 c3         1 A1D       0.166600
     21 C19        185.2730   177.8500   202.0030 c3         1 A1D       0.022700
     22 C28        191.0620   183.4450   197.9050 cd         1 A1D      -0.299400
     23 C29        192.2300   184.2220   197.3080 c          1 A1D       0.724200
     24 C36        188.1550   180.7240   199.3160 ca         1 A1D      -0.165000
     25 C38        195.9170   176.6490   200.2040 c3         1 A1D      -0.075100
     26 C39        193.9070   178.1880   199.6370 c3         1 A1D       0.157300
     27 C41        193.4260   178.1380   201.9870 c6         1 A1D       0.400300
     28 C43        191.2530   178.2520   202.9410 c6         1 A1D       0.189300
     29 C44        189.9060   178.8960   202.6970 c3         1 A1D      -0.092100
     30 C45        191.8070   178.5710   204.3250 c6         1 A1D      -0.138400
     31 C46        193.2160   178.0010   204.4520 c6         1 A1D       0.137500
     32 C50        194.0940   178.5100   203.3060 c6         1 A1D       0.149300
     33 C52        194.0390   179.4180   198.6940 c3         1 A1D       0.196000
     34 C53        192.9410   180.4320   199.0070 c3         1 A1D      -0.129100
     35 C56        195.4150   180.0770   198.8430 c3         1 A1D      -0.052400
     36 C57        195.7620   181.1010   197.7560 c3         1 A1D      -0.158700
     37 C58        196.9560   181.9480   198.2170 c3         1 A1D      -0.083100
     38 C59        196.0710   180.4910   196.4020 c          1 A1D       0.595100
     39 C61        197.2400   179.5140   196.2940 c3         1 A1D      -0.189700
     40 C62        198.4160   180.2680   195.6600 c3         1 A1D      -0.093100
     41 C63        196.8140   178.2570   195.5090 c5         1 A1D       0.090700
     42 C65        197.8130   178.0540   193.4330 c          1 A1D       0.683100
     43 C68        197.8170   177.0690   195.4900 c5         1 A1D       0.169000
     44 C69        198.7860   177.0030   196.6530 c3         1 A1D      -0.081100
     45 N13        191.6390   174.6910   201.2000 ns         1 A1D      -0.510900
     46 N33        189.6890   181.4800   197.6120 na         1 A1D      -0.657200
     47 N47        193.9130   178.2030   205.7160 n3         1 A1D      -0.740600
     48 N64        196.7120   178.4800   194.0860 ns         1 A1D      -0.511900
     49 O04        196.4610   175.3920   196.5550 os         1 A1D      -0.456100
     50 O06        194.3500   175.5400   195.8160 o          1 A1D      -0.473000
     51 O10        193.3700   175.2600   199.9530 os         1 A1D      -0.470100
     52 O12        191.3280   175.0740   198.9880 o          1 A1D      -0.532000
     53 O17        187.1550   176.4400   201.6630 os         1 A1D      -0.444000
     54 O27        190.6220   184.7790   199.8300 o          1 A1D      -0.547100
     55 O30        192.3490   185.4200   197.6070 o          1 A1D      -0.709500
     56 O31        192.9760   183.5650   196.5460 o          1 A1D      -0.709500
     57 O40        194.1730   178.6570   200.9460 os         1 A1D      -0.424000
     58 O42        192.1450   178.7140   201.9350 os         1 A1D      -0.479000
     59 O51        195.3730   177.9460   203.3980 oh         1 A1D      -0.710000
     60 O54        193.9850   178.9620   197.3520 os         1 A1D      -0.482000
     61 O60        195.4860   180.8420   195.4000 o          1 A1D      -0.504100
     62 O66        198.1480   178.2610   192.2930 o          1 A1D      -0.546000
     63 O67        198.5460   177.2920   194.2710 os         1 A1D      -0.438100
     64 H1         190.2500   174.2250   202.6040 h1         1 A1D       0.038200
     65 H2         189.9710   173.4260   201.0750 h1         1 A1D       0.038200
     66 H3         189.7540   176.4380   201.1280 hc         1 A1D       0.078700
     67 H4         188.8690   175.2900   200.1400 hc         1 A1D       0.078700
     68 H5         187.6560   174.5230   202.2620 h1         1 A1D       0.012700
     69 H6         188.4910   175.8220   203.1180 h1         1 A1D       0.012700
     70 H7         187.4150   182.1780   202.2900 ha         1 A1D       0.106000
     71 H8         189.0250   183.8270   201.4290 ha         1 A1D       0.133000
     72 H9         191.1490   182.0750   196.2990 h4         1 A1D       0.222000
     73 H10        188.2800   180.3590   196.5250 h1         1 A1D       0.042033
     74 H11        189.9060   180.4080   195.8460 h1         1 A1D       0.042033
     75 H12        189.5830   179.4050   197.2630 h1         1 A1D       0.042033
     76 H13        195.3410   177.3250   198.2910 hc         1 A1D       0.076700
     77 H19        196.2560   175.9040   194.5530 h1         1 A1D       0.088700
     78 H20        195.6490   174.4530   198.5900 hc         1 A1D       0.080700
     79 H21        193.7290   172.9420   198.7590 hc         1 A1D       0.048367
     80 H22        192.9990   173.6260   197.3020 hc         1 A1D       0.048367
     81 H23        194.5140   172.7240   197.2090 hc         1 A1D       0.048367
     82 H24        193.1730   176.1580   198.1130 h1         1 A1D       0.090700
     83 H25        186.6700   177.2050   203.5180 h1         1 A1D       0.018200
     84 H26        185.5890   175.9370   202.9280 h1         1 A1D       0.018200
     85 H27        184.5600   178.1760   202.7630 hc         1 A1D       0.058700
     86 H28        184.6870   177.4050   201.1940 hc         1 A1D       0.058700
     87 H29        187.9030   179.8420   198.7450 ha         1 A1D       0.116000
     88 H30        196.5340   177.5170   200.4300 hc         1 A1D       0.039367
     89 H31        195.5320   176.2670   201.1470 hc         1 A1D       0.039367
     90 H32        196.5820   175.8950   199.7830 hc         1 A1D       0.039367
     91 H33        192.8590   177.8630   199.5770 h1         1 A1D       0.051700
     92 H34        193.3420   177.0400   201.9140 h2         1 A1D       0.022700
     93 H35        191.1480   177.1590   202.8550 h1         1 A1D       0.016700
     94 H36        189.1800   178.5250   203.4220 hc         1 A1D       0.052700
     95 H37        189.9630   179.9810   202.8020 hc         1 A1D       0.052700
     96 H38        189.5240   178.6710   201.7010 hc         1 A1D       0.052700
     97 H39        191.8060   179.6570   204.4670 hc         1 A1D       0.056700
     98 H40        191.1480   178.1430   205.0840 hc         1 A1D       0.056700
     99 H41        193.1430   176.9120   204.3260 h1         1 A1D       0.050700
    100 H48        194.1430   179.6120   203.3440 h1         1 A1D       0.064700
    101 H49        193.0800   180.8410   200.0060 hc         1 A1D       0.064033
    102 H50        192.9540   181.2660   198.3070 hc         1 A1D       0.064033
    103 H51        191.9450   179.9870   198.9750 hc         1 A1D       0.064033
    104 H55        196.2030   179.3180   198.8940 hc         1 A1D       0.049200
    105 H56        195.4470   180.5910   199.8050 hc         1 A1D       0.049200
    106 H57        194.9230   181.7840   197.5980 hc         1 A1D       0.132700
    107 H58        196.6790   182.4990   199.1160 hc         1 A1D       0.035033
    108 H59        197.8240   181.3340   198.4650 hc         1 A1D       0.035033
    109 H60        197.2560   182.6750   197.4620 hc         1 A1D       0.035033
    110 H61        197.5280   179.1910   197.2970 hc         1 A1D       0.068700
    111 H62        198.7150   181.1160   196.2740 hc         1 A1D       0.044033
    112 H63        199.2960   179.6360   195.5520 hc         1 A1D       0.044033
    113 H64        198.1590   180.6570   194.6750 hc         1 A1D       0.044033
    114 H65        195.8560   177.9220   195.9100 h1         1 A1D       0.100700
    115 H66        198.2470   176.9530   197.5980 hc         1 A1D       0.052367
    116 H67        199.4270   176.1250   196.5850 hc         1 A1D       0.052367
    117 H68        199.4310   177.8780   196.6860 hc         1 A1D       0.052367
    118 H69        192.3160   174.6860   201.9460 hn         1 A1D       0.326500
    119 H71        196.1450   179.2220   193.7080 hn         1 A1D       0.363500
    120 H73        195.5290   177.8550   204.3510 ho         1 A1D       0.522000
    121 C02        197.8970   174.5590   194.8430 c3         1 A1D      -0.082400
    122 C48        193.9210   179.5710   206.1980 c3         1 A1D       0.155600
    123 C01        197.0620   173.3100   194.5820 c3         1 A1D      -0.091100
    124 C49        193.4900   177.2860   206.7530 c3         1 A1D       0.155600
    125 C55        192.7290   178.7350   196.7620 c3         1 A1D       0.148900
    126 C34        189.3410   180.3470   196.7710 c3         1 A1D       0.208100
    127 H14        197.6930   172.5080   194.1990 hc         1 A1D       0.034367
    128 H15        196.5810   172.9350   195.4860 hc         1 A1D       0.034367
    129 H16        196.2860   173.5000   193.8400 hc         1 A1D       0.034367
    130 H17        198.6680   174.3400   195.5850 hc         1 A1D       0.059200
    131 H18        198.4150   174.8370   193.9250 hc         1 A1D       0.059200
    132 H42        194.6350   179.6620   207.0170 h1         1 A1D       0.033033
    133 H43        194.2340   180.2600   205.4140 h1         1 A1D       0.033033
    134 H44        192.9450   179.9100   206.5720 h1         1 A1D       0.033033
    135 H45        194.1500   177.3770   207.6170 h1         1 A1D       0.033033
    136 H46        192.4630   177.4620   207.1040 h1         1 A1D       0.033033
    137 H47        193.5530   176.2580   206.3940 h1         1 A1D       0.033033
    138 H52        192.9090   178.2230   195.8180 h1         1 A1D       0.033700
    139 H53        192.0740   178.1020   197.3700 h1         1 A1D       0.033700
    140 H54        192.1990   179.6670   196.5470 h1         1 A1D       0.033700
@<TRIPOS>BOND
     1     1     2 1   
     2     1    45 1   
     3     1    64 1   
     4     1    65 1   
     5     2     3 1   
     6     2    66 1   
     7     2    67 1   
     8     3    53 1   
     9     3    68 1   
    10     3    69 1   
    11     4     5 3   
    12     4    21 1   
    13     5     6 1   
    14     6     7 ar  
    15     6    24 ar  
    16     7     8 ar  
    17     7    70 1   
    18     8     9 ar  
    19     8    71 1   
    20     9    10 1   
    21     9    12 ar  
    22    10    22 1   
    23    10    54 2   
    24    11    22 2   
    25    11    46 1   
    26    11    72 1   
    27    12    24 ar  
    28    12    46 1   
    29    13    18 1   
    30    13    25 1   
    31    13    26 1   
    32    13    76 1   
    33    14    43 1   
    34    14    49 1   
    35    14    77 1   
    36    14   121 1   
    37    15    16 1   
    38    15    49 1   
    39    15    50 2   
    40    16    17 1   
    41    16    18 1   
    42    16    78 1   
    43    17    79 1   
    44    17    80 1   
    45    17    81 1   
    46    18    51 1   
    47    18    82 1   
    48    19    45 1   
    49    19    51 1   
    50    19    52 2   
    51    20    21 1   
    52    20    53 1   
    53    20    83 1   
    54    20    84 1   
    55    21    85 1   
    56    21    86 1   
    57    22    23 1   
    58    23    55 1   
    59    23    56 1   
    60    24    87 1   
    61    25    88 1   
    62    25    89 1   
    63    25    90 1   
    64    26    33 1   
    65    26    57 1   
    66    26    91 1   
    67    27    32 1   
    68    27    57 1   
    69    27    58 1   
    70    27    92 1   
    71    28    29 1   
    72    28    30 1   
    73    28    58 1   
    74    28    93 1   
    75    29    94 1   
    76    29    95 1   
    77    29    96 1   
    78    30    31 1   
    79    30    97 1   
    80    30    98 1   
    81    31    32 1   
    82    31    47 1   
    83    31    99 1   
    84    32    59 1   
    85    32   100 1   
    86    33    34 1   
    87    33    35 1   
    88    33    60 1   
    89    34   101 1   
    90    34   102 1   
    91    34   103 1   
    92    35    36 1   
    93    35   104 1   
    94    35   105 1   
    95    36    37 1   
    96    36    38 1   
    97    36   106 1   
    98    37   107 1   
    99    37   108 1   
   100    37   109 1   
   101    38    39 1   
   102    38    61 2   
   103    39    40 1   
   104    39    41 1   
   105    39   110 1   
   106    40   111 1   
   107    40   112 1   
   108    40   113 1   
   109    41    43 1   
   110    41    48 1   
   111    41   114 1   
   112    42    48 1   
   113    42    62 2   
   114    42    63 1   
   115    43    44 1   
   116    43    63 1   
   117    44   115 1   
   118    44   116 1   
   119    44   117 1   
   120    45   118 1   
   121    46   126 1   
   122    47   122 1   
   123    47   124 1   
   124    48   119 1   
   125    59   120 1   
   126    60   125 1   
   127    73   126 1   
   128    74   126 1   
   129    75   126 1   
   130   121   123 1   
   131   121   130 1   
   132   121   131 1   
   133   122   132 1   
   134   122   133 1   
   135   122   134 1   
   136   123   127 1   
   137   123   128 1   
   138   123   129 1   
   139   124   135 1   
   140   124   136 1   
   141   124   137 1   
   142   125   138 1   
   143   125   139 1   
   144   125   140 1   
@<TRIPOS>SUBSTRUCTURE
     1 A1D         1 TEMP              0 ****  ****    0 ROOT
