@<TRIPOS>MOLECULE
A1D
   32    34     1     0     0
SMALL
No Charge or Current Charge


@<TRIPOS>ATOM
      1 C10        -18.1910   -66.1830    45.0050 ca         1 A1D      -0.069000
      2 C13        -17.2110   -63.5700    44.6930 ca         1 A1D      -0.170000
      3 C20        -14.9520   -66.5420    42.9550 cc         1 A1D      -0.133200
      4 C01        -15.7030   -66.5130    41.7130 ca         1 A1D      -0.222800
      5 C02        -14.8870   -66.4850    40.5980 ca         1 A1D       0.153300
      6 C04        -16.7100   -66.5400    39.2430 ca         1 A1D       0.271000
      7 C06        -17.1020   -66.5420    41.5140 ca         1 A1D       0.441900
      8 C08        -19.3140   -67.3020    42.4070 c3         1 A1D       0.224100
      9 C09        -17.8780   -65.7160    43.7120 ca         1 A1D       0.216000
     10 C11        -18.0170   -65.3550    46.1290 ca         1 A1D      -0.170000
     11 C12        -17.5290   -64.0490    45.9820 ca         1 A1D       0.148100
     12 C14        -17.3860   -64.4010    43.5710 ca         1 A1D      -0.069000
     13 C16        -16.8810   -61.9330    47.0770 c3         1 A1D       0.146900
     14 C19        -13.5860   -66.5120    42.7260 cd         1 A1D      -0.200400
     15 N03        -15.3650   -66.4960    39.3430 nb         1 A1D      -0.172000
     16 N05        -17.6010   -66.5660    40.2580 nb         1 A1D      -0.277000
     17 N07        -18.0410   -66.5490    42.5760 nh         1 A1D      -0.789100
     18 O15        -17.3770   -63.2830    47.1200 os         1 A1D      -0.337100
     19 S18        -13.1580   -66.4520    40.9900 ss         1 A1D      -0.083900
     20 H101       -18.5540   -67.1980    45.1440 ha         1 A1D       0.128000
     21 H131       -16.8300   -62.5640    44.5420 ha         1 A1D       0.129000
     22 H201       -15.3820   -66.6030    43.9520 ha         1 A1D       0.212000
     23 H081       -19.9310   -67.2600    43.3130 h1         1 A1D       0.050033
     24 H083       -19.9120   -66.8800    41.5880 h1         1 A1D       0.050033
     25 H082       -19.1080   -68.3590    42.1930 h1         1 A1D       0.050033
     26 H111       -18.2590   -65.7300    47.1210 ha         1 A1D       0.129000
     27 H141       -17.1420   -64.0190    42.5830 ha         1 A1D       0.128000
     28 H161       -16.8400   -61.5110    48.0880 h1         1 A1D       0.044033
     29 H162       -15.8680   -61.9030    46.6550 h1         1 A1D       0.044033
     30 H163       -17.5360   -61.2960    46.4690 h1         1 A1D       0.044033
     31 H191       -12.7950   -66.5300    43.4710 h4         1 A1D       0.220000
     32 Cl17       -17.3760   -66.5640    37.6180 cl         1 A1D      -0.136000
@<TRIPOS>BOND
     1     1     9 ar  
     2     1    10 ar  
     3     1    20 1   
     4     2    11 ar  
     5     2    12 ar  
     6     2    21 1   
     7     3     4 1   
     8     3    14 2   
     9     3    22 1   
    10     4     5 ar  
    11     4     7 ar  
    12     5    15 ar  
    13     5    19 1   
    14     6    15 ar  
    15     6    16 ar  
    16     6    32 1   
    17     7    16 ar  
    18     7    17 1   
    19     8    17 1   
    20     8    23 1   
    21     8    24 1   
    22     8    25 1   
    23     9    12 ar  
    24     9    17 1   
    25    10    11 ar  
    26    10    26 1   
    27    11    18 1   
    28    12    27 1   
    29    13    18 1   
    30    13    28 1   
    31    13    29 1   
    32    13    30 1   
    33    14    19 1   
    34    14    31 1   
@<TRIPOS>SUBSTRUCTURE
     1 A1D         1 TEMP              0 ****  ****    0 ROOT
