@<TRIPOS>MOLECULE
A1D
   34    37     1     0     0
SMALL
abcg2


@<TRIPOS>ATOM
      1 C13         17.6540   -65.5430   -43.0210 ca         1 A1D       0.171000
      2 C15         16.9990   -63.5090   -44.1330 ca         1 A1D      -0.215000
      3 C17         17.8240   -65.3820   -45.4200 ca         1 A1D      -0.188000
      4 C21         13.2660   -66.6410   -40.5590 cc         1 A1D      -0.292800
      5 C22         13.1490   -66.1600   -41.8180 cd         1 A1D      -0.156400
      6 C01         15.5140   -66.4180   -41.2050 ca         1 A1D      -0.338000
      7 C02         14.6340   -66.8100   -40.1890 ca         1 A1D       0.162800
      8 C04         16.3450   -67.4670   -38.9420 ca         1 A1D       0.261000
      9 C06         16.8910   -66.6270   -40.9820 ca         1 A1D       0.444900
     10 C08         19.0990   -67.1030   -41.9210 c6         1 A1D       0.144800
     11 C09         19.1370   -67.9560   -43.1790 c          1 A1D       0.547000
     12 C12         18.0050   -66.1020   -44.2530 ca         1 A1D       0.009000
     13 C14         17.1980   -64.2380   -42.9690 ca         1 A1D      -0.040000
     14 C16         17.3010   -64.0880   -45.3650 ca         1 A1D       0.176100
     15 N03         15.0550   -67.3290   -39.0210 nb         1 A1D      -0.161000
     16 N05         17.2730   -67.1630   -39.8270 nb         1 A1D      -0.253000
     17 N07         17.8670   -66.3390   -41.8810 nh         1 A1D      -0.786100
     18 N11         18.5360   -67.3860   -44.2600 ns         1 A1D      -0.147000
     19 O10         19.6770   -69.0400   -43.2220 o          1 A1D      -0.515000
     20 O18         17.1460   -63.4730   -46.5470 os         1 A1D      -0.336100
     21 S23         14.6550   -65.8710   -42.6000 ss         1 A1D       0.141400
     22 H151        16.6200   -62.5000   -44.0570 ha         1 A1D       0.128000
     23 H171        18.0920   -65.8150   -46.3760 ha         1 A1D       0.138000
     24 H211        12.4360   -66.8810   -39.9120 ha         1 A1D       0.225000
     25 H221        12.2340   -65.9430   -42.3500 h4         1 A1D       0.221000
     26 H081        19.1720   -67.7460   -41.0490 h1         1 A1D       0.103200
     27 H082        19.9640   -66.4330   -41.9160 h1         1 A1D       0.103200
     28 H141        16.9760   -63.7850   -42.0110 ha         1 A1D       0.133000
     29 H193        16.5830   -61.8620   -47.6130 h1         1 A1D       0.045367
     30 H191        15.6280   -62.1030   -46.1390 h1         1 A1D       0.045367
     31 H192        17.2810   -61.4550   -46.0350 h1         1 A1D       0.045367
     32 H111        18.6120   -67.8740   -45.1430 hn         1 A1D       0.165000
     33 CL20        16.9470   -68.1460   -37.4630 cl         1 A1D      -0.130000
     34 C19         16.6320   -62.1550   -46.5670 c3         1 A1D       0.146900
@<TRIPOS>BOND
     1     1    12 ar  
     2     1    13 ar  
     3     1    17 1   
     4     2    13 ar  
     5     2    14 ar  
     6     2    22 1   
     7     3    12 ar  
     8     3    14 ar  
     9     3    23 1   
    10     4     5 2   
    11     4     7 1   
    12     4    24 1   
    13     5    21 1   
    14     5    25 1   
    15     6     7 ar  
    16     6     9 ar  
    17     6    21 1   
    18     7    15 ar  
    19     8    15 ar  
    20     8    16 ar  
    21     8    33 1   
    22     9    16 ar  
    23     9    17 1   
    24    10    11 1   
    25    10    17 1   
    26    10    26 1   
    27    10    27 1   
    28    11    18 1   
    29    11    19 2   
    30    12    18 1   
    31    13    28 1   
    32    14    20 1   
    33    18    32 1   
    34    20    34 1   
    35    29    34 1   
    36    30    34 1   
    37    31    34 1   
@<TRIPOS>SUBSTRUCTURE
     1 A1D         1 TEMP              0 ****  ****    0 ROOT
