@<TRIPOS>MOLECULE
A1D
   34    37     1     0     0
SMALL
No Charge or Current Charge


@<TRIPOS>ATOM
      1 C13         17.5950   -65.7580   -43.1940 ca         1 A1D       0.171000
      2 C15         16.8470   -63.6270   -44.1540 ca         1 A1D      -0.215000
      3 C17         18.2150   -65.1290   -45.4830 ca         1 A1D      -0.188000
      4 C21         13.2090   -66.6450   -40.2380 cc         1 A1D      -0.292800
      5 C22         12.9410   -66.7200   -41.5980 cd         1 A1D      -0.156400
      6 C01         15.3830   -66.6500   -41.1250 ca         1 A1D      -0.338000
      7 C02         14.6230   -66.6150   -39.9780 ca         1 A1D       0.162800
      8 C04         16.5180   -66.5920   -38.7210 ca         1 A1D       0.261000
      9 C06         16.7810   -66.6420   -41.0040 ca         1 A1D       0.444900
     10 C08         18.6530   -67.8190   -42.1720 c6         1 A1D       0.144800
     11 C09         19.2330   -68.1730   -43.5670 c          1 A1D       0.547000
     12 C12         18.2700   -66.0350   -44.4090 ca         1 A1D       0.009000
     13 C14         16.8980   -64.5340   -43.0800 ca         1 A1D      -0.040000
     14 C16         17.5030   -63.9280   -45.3650 ca         1 A1D       0.176100
     15 N03         15.1660   -66.5840   -38.7500 nb         1 A1D      -0.161000
     16 N05         17.3540   -66.6260   -39.7840 nb         1 A1D      -0.253000
     17 N07         17.6460   -66.6920   -42.1140 nh         1 A1D      -0.786100
     18 N11         19.0090   -67.2300   -44.5460 ns         1 A1D      -0.147000
     19 O10         19.8500   -69.2100   -43.7880 o          1 A1D      -0.515000
     20 O18         17.4870   -63.0780   -46.4520 os         1 A1D      -0.336100
     21 S23         14.4150   -66.7560   -42.6120 ss         1 A1D       0.141400
     22 H151        16.2950   -62.7000   -44.0260 ha         1 A1D       0.128000
     23 H171        18.7300   -65.3540   -46.4140 ha         1 A1D       0.138000
     24 H211        12.4390   -66.6180   -39.4700 ha         1 A1D       0.225000
     25 H221        11.9700   -66.7590   -42.0830 h4         1 A1D       0.221000
     26 H081        18.2060   -68.7520   -41.8000 h1         1 A1D       0.103200
     27 H082        19.5210   -67.5860   -41.5400 h1         1 A1D       0.103200
     28 H141        16.3920   -64.2780   -42.1530 ha         1 A1D       0.133000
     29 H193        16.9010   -61.3080   -47.3960 h1         1 A1D       0.045367
     30 H191        15.7150   -61.9740   -46.2540 h1         1 A1D       0.045367
     31 H192        17.1860   -61.1650   -45.6490 h1         1 A1D       0.045367
     32 H111        19.3950   -67.4230   -45.4600 hn         1 A1D       0.165000
     33 Cl20        17.2700   -66.5610   -37.1340 cl         1 A1D      -0.130000
     34 C19         16.7870   -61.8210   -46.4330 c3         1 A1D       0.146900
@<TRIPOS>BOND
     1     1    12 ar  
     2     1    13 ar  
     3     1    17 1   
     4     2    13 ar  
     5     2    14 ar  
     6     2    22 1   
     7     3    12 ar  
     8     3    14 ar  
     9     3    23 1   
    10     4     5 2   
    11     4     7 1   
    12     4    24 1   
    13     5    21 1   
    14     5    25 1   
    15     6     7 ar  
    16     6     9 ar  
    17     6    21 1   
    18     7    15 ar  
    19     8    15 ar  
    20     8    16 ar  
    21     8    33 1   
    22     9    16 ar  
    23     9    17 1   
    24    10    11 1   
    25    10    17 1   
    26    10    26 1   
    27    10    27 1   
    28    11    18 1   
    29    11    19 2   
    30    12    18 1   
    31    13    28 1   
    32    14    20 1   
    33    18    32 1   
    34    20    34 1   
    35    29    34 1   
    36    30    34 1   
    37    31    34 1   
@<TRIPOS>SUBSTRUCTURE
     1 A1D         1 TEMP              0 ****  ****    0 ROOT
