@<TRIPOS>MOLECULE
A1D
   60    63     1     0     0
SMALL
abcg2


@<TRIPOS>ATOM
      1 C13        165.2320   175.4350   140.1310 cx         1 A1D      -0.097900
      2 C15        168.0700   172.5350   135.9370 ca         1 A1D      -0.185500
      3 C20        174.0530   168.3520   131.1820 ca         1 A1D      -0.097000
      4 C21        174.9780   167.8580   130.2800 ca         1 A1D      -0.078000
      5 C22        175.5530   168.6790   129.3130 ca         1 A1D      -0.179600
      6 C26        178.5230   166.6900   128.1030 c3         1 A1D       0.109700
      7 C28        179.8730   166.8870   128.7850 c3         1 A1D       0.151600
      8 C02        170.9380   173.9900   132.9680 c3         1 A1D      -0.094400
      9 C03        171.0810   172.8020   133.9150 c3         1 A1D       0.153000
     10 C05        169.3100   173.0130   135.5160 ca         1 A1D       0.170100
     11 C06        169.9070   174.0720   136.1990 ca         1 A1D      -0.185500
     12 C07        169.2680   174.6210   137.2960 ca         1 A1D      -0.024500
     13 C08        168.0250   174.1590   137.7280 ca         1 A1D      -0.202600
     14 C09        167.4070   174.7790   138.9280 c          1 A1D       0.621700
     15 O10        168.0650   175.5080   139.6480 o          1 A1D      -0.537100
     16 C11        165.9860   174.4840   139.2360 cx         1 A1D      -0.259700
     17 C12        165.6430   174.1180   140.6670 cx         1 A1D      -0.097900
     18 C14        167.4380   173.1060   137.0230 ca         1 A1D      -0.024500
     19 C16        171.6520   171.6030   133.2240 cc         1 A1D       0.482300
     20 N17        172.5380   171.5820   132.2890 nd         1 A1D      -0.713000
     21 C18        172.7450   170.2460   132.1080 cd         1 A1D       0.605500
     22 C19        173.6980   169.6980   131.1430 ca         1 A1D      -0.098500
     23 O24        176.3820   168.3120   127.1160 o          1 A1D      -0.571100
     24 N25        177.5320   167.4320   128.8630 ns         1 A1D      -0.508900
     25 C27        178.1280   165.2240   127.9800 c3         1 A1D      -0.105100
     26 O29        180.8540   166.2200   128.0330 oh         1 A1D      -0.654000
     27 C30        175.1600   170.0090   129.2820 ca         1 A1D       0.212000
     28 F31        175.6900   170.8280   128.3690 f          1 A1D      -0.155000
     29 C32        174.2610   170.5360   130.1860 ca         1 A1D      -0.119000
     30 N33        172.0170   169.4990   132.8830 nc         1 A1D      -0.367300
     31 O34        171.2990   170.3920   133.6210 os         1 A1D      -0.053700
     32 H132       165.7610   176.3140   140.4750 hc         1 A1D       0.080700
     33 H131       164.1900   175.5930   139.8910 hc         1 A1D       0.080700
     34 HC15       167.6090   171.7110   135.4070 ha         1 A1D       0.127500
     35 HC20       173.6220   167.6910   131.9210 ha         1 A1D       0.139000
     36 HC21       175.2490   166.8110   130.3220 ha         1 A1D       0.124000
     37 HC26       178.5710   167.1390   127.1100 h1         1 A1D       0.094700
     38 H282       179.8140   166.4970   129.8120 h1         1 A1D       0.021200
     39 H281       180.0750   167.9630   128.8600 h1         1 A1D       0.021200
     40 H011       169.9120   174.6520   131.1990 hc         1 A1D       0.043700
     41 H013       170.2240   172.9240   131.2070 hc         1 A1D       0.043700
     42 H012       168.9370   173.5970   132.2090 hc         1 A1D       0.043700
     43 H021       171.9300   174.2160   132.5720 hc         1 A1D       0.062700
     44 H022       170.6450   174.8610   133.5570 hc         1 A1D       0.062700
     45 HC03       171.7920   173.0570   134.7130 h1         1 A1D       0.075700
     46 HC06       170.8620   174.4840   135.9010 ha         1 A1D       0.127500
     47 HC07       169.7490   175.4350   137.8210 ha         1 A1D       0.127000
     48 HC11       165.4010   173.9920   138.4720 hc         1 A1D       0.090700
     49 H122       164.8950   173.3490   140.8030 hc         1 A1D       0.080700
     50 H121       166.4620   174.0860   141.3740 hc         1 A1D       0.080700
     51 HC14       166.4830   172.6960   137.3230 ha         1 A1D       0.127000
     52 HN25       177.5470   167.3270   129.8670 hn         1 A1D       0.311500
     53 H272       177.1550   165.1300   127.4970 hc         1 A1D       0.045033
     54 H271       178.8520   164.6700   127.3830 hc         1 A1D       0.045033
     55 H273       178.0660   164.7540   128.9630 hc         1 A1D       0.045033
     56 HO29       181.6950   166.3030   128.4920 ho         1 A1D       0.448000
     57 HC32       174.0040   171.5870   130.1410 ha         1 A1D       0.156000
     58 O04        169.8460   172.3810   134.4550 os         1 A1D      -0.338100
     59 C23        176.5260   168.1290   128.3130 c          1 A1D       0.622700
     60 C01        169.9460   173.7700   131.8370 c3         1 A1D      -0.087100
@<TRIPOS>BOND
     1     1    16 1   
     2     1    17 1   
     3     1    32 1   
     4     1    33 1   
     5     2    10 ar  
     6     2    18 ar  
     7     2    34 1   
     8     3     4 ar  
     9     3    22 ar  
    10     3    35 1   
    11     4     5 ar  
    12     4    36 1   
    13     5    27 ar  
    14     5    59 1   
    15     6     7 1   
    16     6    24 1   
    17     6    25 1   
    18     6    37 1   
    19     7    26 1   
    20     7    38 1   
    21     7    39 1   
    22     8     9 1   
    23     8    43 1   
    24     8    44 1   
    25     8    60 1   
    26     9    19 1   
    27     9    45 1   
    28     9    58 1   
    29    10    11 ar  
    30    10    58 1   
    31    11    12 ar  
    32    11    46 1   
    33    12    13 ar  
    34    12    47 1   
    35    13    14 1   
    36    13    18 ar  
    37    14    15 2   
    38    14    16 1   
    39    16    17 1   
    40    16    48 1   
    41    17    49 1   
    42    17    50 1   
    43    18    51 1   
    44    19    20 2   
    45    19    31 1   
    46    20    21 1   
    47    21    22 1   
    48    21    30 2   
    49    22    29 ar  
    50    23    59 2   
    51    24    52 1   
    52    24    59 1   
    53    25    53 1   
    54    25    54 1   
    55    25    55 1   
    56    26    56 1   
    57    27    28 1   
    58    27    29 ar  
    59    29    57 1   
    60    30    31 1   
    61    40    60 1   
    62    41    60 1   
    63    42    60 1   
@<TRIPOS>SUBSTRUCTURE
     1 A1D         1 TEMP              0 ****  ****    0 ROOT
