@<TRIPOS>MOLECULE
A1D
   60    63     1     0     0
SMALL
No Charge or Current Charge


@<TRIPOS>ATOM
      1 C13        166.2140   175.0820   141.0130 cx         1 A1D      -0.097900
      2 C15        168.0790   172.5880   136.2130 ca         1 A1D      -0.185500
      3 C20        173.9570   168.6170   130.6340 ca         1 A1D      -0.097000
      4 C21        175.1140   168.1600   129.9800 ca         1 A1D      -0.078000
      5 C22        176.2300   169.0130   129.7840 ca         1 A1D      -0.179600
      6 C26        178.6630   166.4870   128.1630 c3         1 A1D       0.109700
      7 C28        179.8670   166.2920   129.1290 c3         1 A1D       0.151600
      8 C02        169.8160   173.7590   132.4890 c3         1 A1D      -0.094400
      9 C03        170.6170   172.8730   133.4880 c3         1 A1D       0.153000
     10 C05        169.1340   173.1440   135.4770 ca         1 A1D       0.170100
     11 C06        169.5700   174.4510   135.7750 ca         1 A1D      -0.185500
     12 C07        168.9420   175.1900   136.7930 ca         1 A1D      -0.024500
     13 C08        167.8740   174.6360   137.5330 ca         1 A1D      -0.202600
     14 C09        167.2140   175.4530   138.6240 c          1 A1D       0.621700
     15 O10        167.4740   176.6410   138.7750 o          1 A1D      -0.537100
     16 C11        166.2050   174.7710   139.5280 cx         1 A1D      -0.259700
     17 C12        166.7010   173.7400   140.5230 cx         1 A1D      -0.097900
     18 C14        167.4480   173.3230   137.2310 ca         1 A1D      -0.024500
     19 C16        171.3220   171.7090   132.8110 cc         1 A1D       0.482300
     20 N17        172.5330   171.7120   132.2890 nd         1 A1D      -0.713000
     21 C18        172.6510   170.4260   131.8080 cd         1 A1D       0.605500
     22 C19        173.8700   169.9400   131.1170 ca         1 A1D      -0.098500
     23 O24        178.3780   169.2640   128.7070 o          1 A1D      -0.571100
     24 N25        177.5470   167.1660   128.8350 ns         1 A1D      -0.508900
     25 C27        178.1600   165.1650   127.5450 c3         1 A1D      -0.105100
     26 O29        181.0010   165.7410   128.4410 oh         1 A1D      -0.654000
     27 C30        176.1360   170.3400   130.2680 ca         1 A1D       0.212000
     28 F31        177.1600   171.2130   130.1350 f          1 A1D      -0.155000
     29 C32        174.9790   170.7910   130.9220 ca         1 A1D      -0.119000
     30 N33        171.5860   169.6650   132.0110 nc         1 A1D      -0.367300
     31 O34        170.6820   170.5130   132.6860 os         1 A1D      -0.053700
     32 H132       166.9570   175.7800   141.3920 hc         1 A1D       0.080700
     33 H131       165.2580   175.1150   141.5310 hc         1 A1D       0.080700
     34 HC15       167.7440   171.5790   135.9890 ha         1 A1D       0.127500
     35 HC20       173.1230   167.9290   130.7600 ha         1 A1D       0.139000
     36 HC21       175.1150   167.1340   129.6190 ha         1 A1D       0.124000
     37 HC26       179.0020   167.1300   127.3390 h1         1 A1D       0.094700
     38 H282       179.5630   165.6300   129.9510 h1         1 A1D       0.021200
     39 H281       180.1350   167.2620   129.5680 h1         1 A1D       0.021200
     40 H011       168.1180   173.7460   131.1170 hc         1 A1D       0.043700
     41 H013       168.9750   172.1970   131.1960 hc         1 A1D       0.043700
     42 H012       167.9000   172.6900   132.5250 hc         1 A1D       0.043700
     43 H021       170.5060   174.1290   131.7200 hc         1 A1D       0.062700
     44 H022       169.4380   174.6470   133.0070 hc         1 A1D       0.062700
     45 HC03       171.4050   173.4780   133.9520 h1         1 A1D       0.075700
     46 HC06       170.3940   174.9090   135.2390 ha         1 A1D       0.127500
     47 HC07       169.2950   176.1980   137.0060 ha         1 A1D       0.127000
     48 HC11       165.2340   174.5950   139.0730 hc         1 A1D       0.090700
     49 H122       166.0730   172.8730   140.7130 hc         1 A1D       0.080700
     50 H121       167.7700   173.5430   140.5700 hc         1 A1D       0.080700
     51 HC14       166.6260   172.8590   137.7720 ha         1 A1D       0.127000
     52 HN25       176.7800   166.6020   129.1760 hn         1 A1D       0.311500
     53 H272       177.3180   165.3520   126.8690 hc         1 A1D       0.045033
     54 H271       178.9530   164.6770   126.9660 hc         1 A1D       0.045033
     55 H273       177.8280   164.4700   128.3260 hc         1 A1D       0.045033
     56 HO29       181.7210   165.6470   129.1040 ho         1 A1D       0.448000
     57 HC32       174.9540   171.8180   131.2800 ha         1 A1D       0.156000
     58 O04        169.7100   172.3610   134.4960 os         1 A1D      -0.338100
     59 C23        177.4780   168.5230   129.0750 c          1 A1D       0.622700
     60 C01        168.6310   173.0500   131.7910 c3         1 A1D      -0.087100
@<TRIPOS>BOND
     1     1    16 1   
     2     1    17 1   
     3     1    32 1   
     4     1    33 1   
     5     2    10 ar  
     6     2    18 ar  
     7     2    34 1   
     8     3     4 ar  
     9     3    22 ar  
    10     3    35 1   
    11     4     5 ar  
    12     4    36 1   
    13     5    27 ar  
    14     5    59 1   
    15     6     7 1   
    16     6    24 1   
    17     6    25 1   
    18     6    37 1   
    19     7    26 1   
    20     7    38 1   
    21     7    39 1   
    22     8     9 1   
    23     8    43 1   
    24     8    44 1   
    25     8    60 1   
    26     9    19 1   
    27     9    45 1   
    28     9    58 1   
    29    10    11 ar  
    30    10    58 1   
    31    11    12 ar  
    32    11    46 1   
    33    12    13 ar  
    34    12    47 1   
    35    13    14 1   
    36    13    18 ar  
    37    14    15 2   
    38    14    16 1   
    39    16    17 1   
    40    16    48 1   
    41    17    49 1   
    42    17    50 1   
    43    18    51 1   
    44    19    20 2   
    45    19    31 1   
    46    20    21 1   
    47    21    22 1   
    48    21    30 2   
    49    22    29 ar  
    50    23    59 2   
    51    24    52 1   
    52    24    59 1   
    53    25    53 1   
    54    25    54 1   
    55    25    55 1   
    56    26    56 1   
    57    27    28 1   
    58    27    29 ar  
    59    29    57 1   
    60    30    31 1   
    61    40    60 1   
    62    41    60 1   
    63    42    60 1   
@<TRIPOS>SUBSTRUCTURE
     1 A1D         1 TEMP              0 ****  ****    0 ROOT
