@<TRIPOS>MOLECULE
A1D
   25    26     1     0     0
SMALL
abcg2


@<TRIPOS>ATOM
      1 C11        106.4070   103.4090    75.6390 ca         1 A1D       0.165000
      2 C12        105.3070   105.1500    74.1950 c3         1 A1D      -0.046800
      3 C13        105.8180   103.0190    77.9040 ca         1 A1D      -0.092000
      4 C14        106.6000   102.6970    76.8080 ca         1 A1D      -0.146000
      5 C05        103.6550   105.8320    76.5320 c5         1 A1D       0.155800
      6 C06        104.6960   104.7360    76.6280 ca         1 A1D      -0.056300
      7 C07        102.4460   105.4320    75.6410 c5         1 A1D       0.126600
      8 C08        105.4780   104.4300    75.5030 ca         1 A1D      -0.114300
      9 C09        104.8740   104.0320    77.8120 ca         1 A1D      -0.098000
     10 C10        101.8050   105.9810    77.6970 c2         1 A1D       0.789500
     11 F01        107.1700   103.0840    74.5770 f          1 A1D      -0.184000
     12 N03        103.0610   106.1730    77.8070 n2         1 A1D      -0.725900
     13 N04        100.8690   106.2320    78.6330 nv         1 A1D      -1.017200
     14 O02        101.3260   105.5380    76.5230 os         1 A1D      -0.468600
     15 H1         104.4060   104.8160    73.6760 hc         1 A1D       0.047033
     16 H2         105.2130   106.2270    74.3400 hc         1 A1D       0.047033
     17 H3         106.1440   104.9860    73.5220 hc         1 A1D       0.047033
     18 H4         105.9470   102.4790    78.8330 ha         1 A1D       0.117000
     19 H5         107.3430   101.9120    76.8520 ha         1 A1D       0.131000
     20 H6         104.1410   106.7190    76.1110 h1         1 A1D       0.080700
     21 H7         102.3010   106.1100    74.8000 h1         1 A1D       0.066700
     22 H8         102.5010   104.4090    75.2640 h1         1 A1D       0.066700
     23 H9         104.2680   104.2860    78.6710 ha         1 A1D       0.133000
     24 H13         99.9770   105.7720    78.5500 hn         1 A1D       0.488500
     25 H14        101.2000   106.3450    79.5770 hn         1 A1D       0.488500
@<TRIPOS>BOND
     1     1     4 ar  
     2     1     8 ar  
     3     1    11 1   
     4     2     8 1   
     5     2    15 1   
     6     2    16 1   
     7     2    17 1   
     8     3     4 ar  
     9     3     9 ar  
    10     3    18 1   
    11     4    19 1   
    12     5     6 1   
    13     5     7 1   
    14     5    12 1   
    15     5    20 1   
    16     6     8 ar  
    17     6     9 ar  
    18     7    14 1   
    19     7    21 1   
    20     7    22 1   
    21     9    23 1   
    22    10    12 2   
    23    10    13 1   
    24    10    14 1   
    25    13    24 1   
    26    13    25 1   
@<TRIPOS>SUBSTRUCTURE
     1 A1D         1 TEMP              0 ****  ****    0 ROOT
