@<TRIPOS>MOLECULE
A1D
   38    41     1     0     0
SMALL
abcg2


@<TRIPOS>ATOM
      1 C10         17.4550   -63.1510   -45.0710 ca         1 A1D      -0.120000
      2 C11         17.3790   -63.9320   -46.2230 ca         1 A1D      -0.045200
      3 C12         17.6480   -65.3200   -46.2130 ca         1 A1D      -0.099800
      4 C13         17.9860   -65.9370   -45.0060 ca         1 A1D      -0.040000
      5 C14         17.4820   -65.7790   -47.5540 cc         1 A1D      -0.232200
      6 C15         17.1300   -64.6870   -48.2940 cd         1 A1D      -0.157100
      7 C18         19.8010   -65.8410   -42.2620 c3         1 A1D       0.232100
      8 C20         13.6770   -66.0290   -42.5890 cc         1 A1D      -0.165400
      9 C21         13.8360   -66.4230   -41.3040 cd         1 A1D      -0.299800
     10 C02         16.9740   -66.8240   -39.5750 ca         1 A1D       0.180300
     11 C04         15.2150   -66.4650   -40.9270 ca         1 A1D       0.158800
     12 C05         16.0590   -66.0830   -41.9710 ca         1 A1D      -0.336000
     13 C06         17.4510   -66.1000   -41.7130 ca         1 A1D       0.439900
     14 C08         18.0470   -65.1680   -43.8600 ca         1 A1D       0.214000
     15 C09         17.7950   -63.7840   -43.8940 ca         1 A1D      -0.090000
     16 N01         17.8650   -66.4750   -40.5080 nb         1 A1D      -0.289000
     17 N03         15.6660   -66.8370   -39.7150 nb         1 A1D      -0.194000
     18 N07         18.3940   -65.7760   -42.6220 nh         1 A1D      -0.808100
     19 N16         17.0640   -63.5750   -47.5000 na         1 A1D      -0.085700
     20 S19         15.1580   -65.6890   -43.3960 ss         1 A1D       0.124400
     21 H1          17.2550   -62.0870   -45.0890 ha         1 A1D       0.119000
     22 H2          18.1860   -67.0010   -44.9570 ha         1 A1D       0.130000
     23 H3          17.6030   -66.7850   -47.9220 ha         1 A1D       0.210000
     24 H4          16.9110   -64.6110   -49.3480 h4         1 A1D       0.213000
     25 H5          17.5800   -61.5620   -47.7900 h1         1 A1D       0.050367
     26 H6          16.4870   -62.2580   -48.9910 h1         1 A1D       0.050367
     27 H7          15.8810   -61.8520   -47.3830 h1         1 A1D       0.050367
     28 H8          20.0560   -66.8180   -41.8560 h1         1 A1D       0.045033
     29 H9          20.3880   -65.6750   -43.1610 h1         1 A1D       0.045033
     30 H10         20.0700   -65.0820   -41.5250 h1         1 A1D       0.045033
     31 H11         12.7470   -65.9130   -43.1250 h4         1 A1D       0.215000
     32 H12         13.0260   -66.6780   -40.6370 ha         1 A1D       0.216000
     33 H13         18.2660   -68.0310   -38.3680 hc         1 A1D       0.055033
     34 H14         18.0760   -66.3850   -37.7960 hc         1 A1D       0.055033
     35 H15         16.7610   -67.5460   -37.5670 hc         1 A1D       0.055033
     36 H16         17.8610   -63.2160   -42.9740 ha         1 A1D       0.124000
     37 C17         16.7380   -62.2380   -47.9340 c3         1 A1D       0.063900
     38 C22         17.5440   -67.2230   -38.2490 c3         1 A1D      -0.131400
@<TRIPOS>BOND
     1     1     2 ar  
     2     1    15 ar  
     3     1    21 1   
     4     2     3 ar  
     5     2    19 1   
     6     3     4 ar  
     7     3     5 1   
     8     4    14 ar  
     9     4    22 1   
    10     5     6 2   
    11     5    23 1   
    12     6    19 1   
    13     6    24 1   
    14     7    18 1   
    15     7    28 1   
    16     7    29 1   
    17     7    30 1   
    18     8     9 2   
    19     8    20 1   
    20     8    31 1   
    21     9    11 1   
    22     9    32 1   
    23    10    16 ar  
    24    10    17 ar  
    25    10    38 1   
    26    11    12 ar  
    27    11    17 ar  
    28    12    13 ar  
    29    12    20 1   
    30    13    16 ar  
    31    13    18 1   
    32    14    15 ar  
    33    14    18 1   
    34    15    36 1   
    35    19    37 1   
    36    25    37 1   
    37    26    37 1   
    38    27    37 1   
    39    33    38 1   
    40    34    38 1   
    41    35    38 1   
@<TRIPOS>SUBSTRUCTURE
     1 A1D         1 TEMP              0 ****  ****    0 ROOT
