@<TRIPOS>MOLECULE
A1D
   38    41     1     0     0
SMALL
No Charge or Current Charge


@<TRIPOS>ATOM
      1 C10         17.1600   -63.3500   -44.9770 ca         1 A1D      -0.120000
      2 C11         17.4160   -63.8910   -46.2450 ca         1 A1D      -0.045200
      3 C12         17.9250   -65.1520   -46.3840 ca         1 A1D      -0.099800
      4 C13         18.2170   -65.9660   -45.2810 ca         1 A1D      -0.040000
      5 C14         18.0640   -65.4070   -47.7870 cc         1 A1D      -0.232200
      6 C15         17.6260   -64.2680   -48.4540 cd         1 A1D      -0.157100
      7 C18         19.5630   -66.9030   -42.7020 c3         1 A1D       0.232100
      8 C20         13.4850   -66.4620   -42.4000 cc         1 A1D      -0.165400
      9 C21         13.7760   -66.4240   -41.0490 cd         1 A1D      -0.299800
     10 C02         17.0370   -66.3010   -39.4420 ca         1 A1D       0.180300
     11 C04         15.1780   -66.3520   -40.7410 ca         1 A1D       0.158800
     12 C05         15.9440   -66.3250   -41.8810 ca         1 A1D      -0.336000
     13 C06         17.3430   -66.2740   -41.7360 ca         1 A1D       0.439900
     14 C08         17.9700   -65.4570   -43.9830 ca         1 A1D       0.214000
     15 C09         17.4430   -64.1450   -43.8450 ca         1 A1D      -0.090000
     16 N01         17.8860   -66.2700   -40.4970 nb         1 A1D      -0.289000
     17 N03         15.6870   -66.3390   -39.5010 nb         1 A1D      -0.194000
     18 N07         18.2390   -66.2400   -42.8320 nh         1 A1D      -0.808100
     19 N16         17.2190   -63.3150   -47.4930 na         1 A1D      -0.085700
     20 S19         14.9760   -66.4160   -43.3850 ss         1 A1D       0.124400
     21 H1          16.7550   -62.3470   -44.8610 ha         1 A1D       0.119000
     22 H2          18.6050   -66.9690   -45.4250 ha         1 A1D       0.130000
     23 H3          18.4380   -66.3140   -48.2580 ha         1 A1D       0.210000
     24 H4          17.5730   -64.0670   -49.5220 h4         1 A1D       0.213000
     25 H5          17.3370   -61.2270   -47.2280 h1         1 A1D       0.050367
     26 H6          16.6280   -61.7530   -48.7840 h1         1 A1D       0.050367
     27 H7          15.6760   -61.8950   -47.2760 h1         1 A1D       0.050367
     28 H8          19.4400   -67.9520   -42.4030 h1         1 A1D       0.045033
     29 H9          20.1130   -66.8920   -43.6520 h1         1 A1D       0.045033
     30 H10         20.1850   -66.3880   -41.9570 h1         1 A1D       0.045033
     31 H11         12.5220   -66.5170   -42.8980 h4         1 A1D       0.215000
     32 H12         13.0080   -66.4470   -40.2800 ha         1 A1D       0.216000
     33 H13         18.6430   -66.7750   -38.0550 hc         1 A1D       0.055033
     34 H14         17.8070   -65.2520   -37.7120 hc         1 A1D       0.055033
     35 H15         17.0330   -66.7980   -37.3250 hc         1 A1D       0.055033
     36 H16         17.2550   -63.7430   -42.8540 ha         1 A1D       0.124000
     37 C17         16.6820   -61.9640   -47.7090 c3         1 A1D       0.063900
     38 C22         17.6640   -66.2820   -38.0590 c3         1 A1D      -0.131400
@<TRIPOS>BOND
     1     1     2 ar  
     2     1    15 ar  
     3     1    21 1   
     4     2     3 ar  
     5     2    19 1   
     6     3     4 ar  
     7     3     5 1   
     8     4    14 ar  
     9     4    22 1   
    10     5     6 2   
    11     5    23 1   
    12     6    19 1   
    13     6    24 1   
    14     7    18 1   
    15     7    28 1   
    16     7    29 1   
    17     7    30 1   
    18     8     9 2   
    19     8    20 1   
    20     8    31 1   
    21     9    11 1   
    22     9    32 1   
    23    10    16 ar  
    24    10    17 ar  
    25    10    38 1   
    26    11    12 ar  
    27    11    17 ar  
    28    12    13 ar  
    29    12    20 1   
    30    13    16 ar  
    31    13    18 1   
    32    14    15 ar  
    33    14    18 1   
    34    15    36 1   
    35    19    37 1   
    36    25    37 1   
    37    26    37 1   
    38    27    37 1   
    39    33    38 1   
    40    34    38 1   
    41    35    38 1   
@<TRIPOS>SUBSTRUCTURE
     1 A1D         1 TEMP              0 ****  ****    0 ROOT
