@<TRIPOS>MOLECULE
A1D
   60    63     1     0     0
SMALL
abcg2


@<TRIPOS>ATOM
      1 C10        169.1170   161.6120   132.9280 c6         1 A1D      -0.088400
      2 C15        166.0430   163.3330   129.4390 ca         1 A1D      -0.171000
      3 C17        164.9380   165.4680   129.3610 cp         1 A1D       0.348500
      4 C20        163.9430   167.8800   126.6260 ca         1 A1D      -0.022000
      5 C21        163.0710   168.7080   127.3200 ca         1 A1D      -0.263500
      6 C26        162.7980   168.4890   128.6620 ca         1 A1D      -0.022000
      7 C01        171.2430   160.3760   138.9200 c3         1 A1D      -0.084600
      8 C03        173.3640   159.4380   137.9280 c3         1 A1D      -0.084600
      9 C04        171.1560   158.8860   136.9450 cc         1 A1D       0.593300
     10 N05        170.5450   157.7580   136.7470 nd         1 A1D      -0.409300
     11 O06        170.0120   157.9020   135.4650 os         1 A1D      -0.137700
     12 C07        170.3640   159.1110   135.0400 cd         1 A1D       0.745900
     13 N08        169.9710   159.5010   133.8330 nh         1 A1D      -0.785300
     14 C09        170.3520   160.8030   133.3110 c6         1 A1D       0.234800
     15 C11        168.0330   160.7310   132.2710 c6         1 A1D      -0.064700
     16 C12        167.3380   161.4430   131.1290 c3         1 A1D       0.165600
     17 O13        166.7130   162.6040   131.6560 os         1 A1D      -0.336100
     18 C14        166.1460   163.4780   130.8170 ca         1 A1D       0.102100
     19 C16        165.4320   164.3430   128.7110 ca         1 A1D      -0.102000
     20 C18        164.2870   166.5810   128.6390 cp         1 A1D      -0.077500
     21 C19        164.5420   166.8210   127.2870 ca         1 A1D      -0.109500
     22 C23        160.9280   169.3420   125.6400 c3         1 A1D      -0.336100
     23 O24        161.8090   171.0150   127.4740 o          1 A1D      -0.523000
     24 O25        163.2590   170.5630   125.4720 o          1 A1D      -0.523000
     25 C27        163.4090   167.4320   129.3140 ca         1 A1D      -0.109500
     26 N28        165.0240   165.5840   130.6880 nb         1 A1D      -0.634000
     27 C29        165.6030   164.6350   131.3890 ca         1 A1D       0.316900
     28 C30        168.6390   159.4170   131.7870 c6         1 A1D      -0.088400
     29 C31        169.1890   158.6240   132.9660 c6         1 A1D       0.234800
     30 N32        171.0800   159.7680   135.9170 nc         1 A1D      -0.806000
     31 H101       169.4390   162.4050   132.2480 hc         1 A1D       0.056950
     32 H102       168.7120   162.1050   133.8130 hc         1 A1D       0.056950
     33 H151       166.4170   162.4590   128.9240 ha         1 A1D       0.124000
     34 H201       164.1690   168.0550   125.5830 ha         1 A1D       0.136500
     35 H261       162.1190   169.1330   129.2050 ha         1 A1D       0.136500
     36 H011       171.7620   160.5810   139.8570 hc         1 A1D       0.041533
     37 H012       171.2980   161.2750   138.3040 hc         1 A1D       0.041533
     38 H013       170.1940   160.1880   139.1520 hc         1 A1D       0.041533
     39 H021       171.7950   158.3040   138.8530 hc         1 A1D       0.066700
     40 H031       173.8980   159.6290   138.8590 hc         1 A1D       0.041533
     41 H033       173.8320   158.5810   137.4430 hc         1 A1D       0.041533
     42 H032       173.4960   160.3060   137.2810 hc         1 A1D       0.041533
     43 H092       171.0040   160.6600   132.4450 h1         1 A1D       0.062200
     44 H091       170.9380   161.3260   134.0620 h1         1 A1D       0.062200
     45 H111       167.2750   160.4830   133.0220 hc         1 A1D       0.071700
     46 H121       166.5890   160.7910   130.6650 h1         1 A1D       0.039200
     47 H122       168.0700   161.7180   130.3590 h1         1 A1D       0.039200
     48 H161       165.3330   164.2270   127.6400 ha         1 A1D       0.124000
     49 H191       165.2360   166.1990   126.7380 ha         1 A1D       0.128500
     50 H232       160.2600   168.8990   126.3760 h1         1 A1D       0.101700
     51 H233       160.4150   170.1370   125.0980 h1         1 A1D       0.101700
     52 H231       161.2810   168.5840   124.9450 h1         1 A1D       0.101700
     53 H271       163.2010   167.2640   130.3610 ha         1 A1D       0.128500
     54 H291       165.6570   164.7720   132.4650 h4         1 A1D       0.037100
     55 H302       167.8870   158.7990   131.2940 hc         1 A1D       0.056950
     56 H301       169.4200   159.6070   131.0450 hc         1 A1D       0.056950
     57 H311       168.3520   158.2100   133.5310 h1         1 A1D       0.062200
     58 H312       169.7980   157.7870   132.6130 h1         1 A1D       0.062200
     59 S22        162.3170   170.0760   126.4770 sy         1 A1D       1.057500
     60 C02        171.8850   159.1850   138.2120 c3         1 A1D      -0.090000
@<TRIPOS>BOND
     1     1    14 1   
     2     1    15 1   
     3     1    31 1   
     4     1    32 1   
     5     2    18 ar  
     6     2    19 ar  
     7     2    33 1   
     8     3    19 ar  
     9     3    20 1   
    10     3    26 ar  
    11     4     5 ar  
    12     4    21 ar  
    13     4    34 1   
    14     5     6 ar  
    15     5    59 1   
    16     6    25 ar  
    17     6    35 1   
    18     7    36 1   
    19     7    37 1   
    20     7    38 1   
    21     7    60 1   
    22     8    40 1   
    23     8    41 1   
    24     8    42 1   
    25     8    60 1   
    26     9    10 2   
    27     9    30 1   
    28     9    60 1   
    29    10    11 1   
    30    11    12 1   
    31    12    13 1   
    32    12    30 2   
    33    13    14 1   
    34    13    29 1   
    35    14    43 1   
    36    14    44 1   
    37    15    16 1   
    38    15    28 1   
    39    15    45 1   
    40    16    17 1   
    41    16    46 1   
    42    16    47 1   
    43    17    18 1   
    44    18    27 ar  
    45    19    48 1   
    46    20    21 ar  
    47    20    25 ar  
    48    21    49 1   
    49    22    50 1   
    50    22    51 1   
    51    22    52 1   
    52    22    59 1   
    53    23    59 2   
    54    24    59 2   
    55    25    53 1   
    56    26    27 ar  
    57    27    54 1   
    58    28    29 1   
    59    28    55 1   
    60    28    56 1   
    61    29    57 1   
    62    29    58 1   
    63    39    60 1   
@<TRIPOS>SUBSTRUCTURE
     1 A1D         1 TEMP              0 ****  ****    0 ROOT
