@<TRIPOS>MOLECULE
A1D
   25    26     1     0     0
SMALL
No Charge or Current Charge


@<TRIPOS>ATOM
      1 C11        106.5050   103.4780    75.6890 ca         1 A1D       0.165000
      2 C12        105.5730   105.3160    74.1820 c3         1 A1D      -0.046800
      3 C13        105.5410   102.9660    77.8540 ca         1 A1D      -0.092000
      4 C14        106.4990   102.7160    76.8640 ca         1 A1D      -0.146000
      5 C05        103.5310   105.8860    76.3120 c5         1 A1D       0.155800
      6 C06        104.5860   104.7740    76.4920 ca         1 A1D      -0.056300
      7 C07        102.2600   105.1970    75.7390 c5         1 A1D       0.126600
      8 C08        105.5530   104.5060    75.4830 ca         1 A1D      -0.114300
      9 C09        104.5950   103.9850    77.6680 ca         1 A1D      -0.098000
     10 C10        101.8670   106.0690    77.7140 c2         1 A1D       0.789500
     11 F01        107.4430   103.2090    74.7530 f          1 A1D      -0.184000
     12 N03        103.0430   106.5210    77.5690 n2         1 A1D      -0.725900
     13 N04        101.0710   106.2760    78.7640 nv         1 A1D      -1.017200
     14 O02        101.3700   105.1460    76.8670 os         1 A1D      -0.468600
     15 H1         104.5800   105.3490    73.7180 hc         1 A1D       0.047033
     16 H2         105.8930   106.3480    74.3680 hc         1 A1D       0.047033
     17 H3         106.2530   104.8980    73.4310 hc         1 A1D       0.047033
     18 H4         105.5310   102.3730    78.7670 ha         1 A1D       0.117000
     19 H5         107.2370   101.9300    77.0040 ha         1 A1D       0.131000
     20 H6         103.8880   106.6660    75.6260 h1         1 A1D       0.080700
     21 H7         101.8000   105.8120    74.9540 h1         1 A1D       0.066700
     22 H8         102.4370   104.1880    75.3420 h1         1 A1D       0.066700
     23 H9         103.8610   104.1580    78.4510 ha         1 A1D       0.133000
     24 H13        100.4410   105.4970    78.9010 hn         1 A1D       0.488500
     25 H14        101.5970   106.5430    79.5840 hn         1 A1D       0.488500
@<TRIPOS>BOND
     1     1     4 ar  
     2     1     8 ar  
     3     1    11 1   
     4     2     8 1   
     5     2    15 1   
     6     2    16 1   
     7     2    17 1   
     8     3     4 ar  
     9     3     9 ar  
    10     3    18 1   
    11     4    19 1   
    12     5     6 1   
    13     5     7 1   
    14     5    12 1   
    15     5    20 1   
    16     6     8 ar  
    17     6     9 ar  
    18     7    14 1   
    19     7    21 1   
    20     7    22 1   
    21     9    23 1   
    22    10    12 2   
    23    10    13 1   
    24    10    14 1   
    25    13    24 1   
    26    13    25 1   
@<TRIPOS>SUBSTRUCTURE
     1 A1D         1 TEMP              0 ****  ****    0 ROOT
