@<TRIPOS>MOLECULE
A1D
   60    63     1     0     0
SMALL
No Charge or Current Charge


@<TRIPOS>ATOM
      1 C10        169.2130   161.6700   133.0270 c6         1 A1D      -0.088400
      2 C15        166.1340   163.5380   129.3790 ca         1 A1D      -0.171000
      3 C17        164.9590   165.6920   129.2480 cp         1 A1D       0.348500
      4 C20        163.7920   167.9710   126.3680 ca         1 A1D      -0.022000
      5 C21        162.8890   168.8290   127.0260 ca         1 A1D      -0.263500
      6 C26        162.6600   168.6660   128.4060 ca         1 A1D      -0.022000
      7 C01        171.4780   160.0100   139.1860 c3         1 A1D      -0.084600
      8 C03        173.5450   159.0770   137.9990 c3         1 A1D      -0.084600
      9 C04        171.2170   158.5830   137.0930 cc         1 A1D       0.593300
     10 N05        170.5850   157.4360   136.8940 nd         1 A1D      -0.409300
     11 O06        169.9640   157.6540   135.6430 os         1 A1D      -0.137700
     12 C07        170.3240   158.9160   135.2760 cd         1 A1D       0.745900
     13 N08        169.8880   159.4790   134.0840 nh         1 A1D      -0.785300
     14 C09        170.3670   160.8100   133.6140 c6         1 A1D       0.234800
     15 C11        168.1120   160.8430   132.2920 c6         1 A1D      -0.064700
     16 C12        167.4760   161.6200   131.1050 c3         1 A1D       0.165600
     17 O13        166.8960   162.8390   131.6010 os         1 A1D      -0.336100
     18 C14        166.2650   163.7450   130.7680 ca         1 A1D       0.102100
     19 C16        165.4730   164.5230   128.6210 ca         1 A1D      -0.102000
     20 C18        164.2440   166.7740   128.4780 cp         1 A1D      -0.077500
     21 C19        164.4580   166.9620   127.0850 ca         1 A1D      -0.109500
     22 C23        160.5290   169.2920   125.5580 c3         1 A1D      -0.336100
     23 O24        161.6010   171.1700   127.0400 o          1 A1D      -0.523000
     24 O25        162.7910   170.4380   124.8950 o          1 A1D      -0.523000
     25 C27        163.3310   167.6570   129.1170 ca         1 A1D      -0.109500
     26 N28        165.0820   165.8710   130.5860 nb         1 A1D      -0.634000
     27 C29        165.7200   164.9260   131.3200 ca         1 A1D       0.316900
     28 C30        168.6710   159.4650   131.8580 c6         1 A1D      -0.088400
     29 C31        169.1330   158.6530   133.0970 c6         1 A1D       0.234800
     30 N32        171.0920   159.5370   136.1260 nc         1 A1D      -0.806000
     31 H101       169.6520   162.4180   132.3520 hc         1 A1D       0.056950
     32 H102       168.7430   162.2410   133.8390 hc         1 A1D       0.056950
     33 H151       166.5200   162.6500   128.8870 ha         1 A1D       0.124000
     34 H201       163.9840   168.0810   125.3020 ha         1 A1D       0.136500
     35 H261       161.9640   169.3160   128.9330 ha         1 A1D       0.136500
     36 H011       172.0480   160.1250   140.1160 hc         1 A1D       0.041533
     37 H012       171.5190   160.9590   138.6390 hc         1 A1D       0.041533
     38 H013       170.4320   159.8120   139.4510 hc         1 A1D       0.041533
     39 H021       172.0040   157.9520   138.9580 hc         1 A1D       0.066700
     40 H031       174.1360   159.1830   138.9170 hc         1 A1D       0.041533
     41 H033       173.9460   158.2270   137.4330 hc         1 A1D       0.041533
     42 H032       173.6810   159.9840   137.3970 hc         1 A1D       0.041533
     43 H092       171.1260   160.6590   132.8310 h1         1 A1D       0.062200
     44 H091       170.8580   161.3820   134.4140 h1         1 A1D       0.062200
     45 H111       167.2910   160.6580   133.0010 hc         1 A1D       0.071700
     46 H121       166.7070   160.9910   130.6380 h1         1 A1D       0.039200
     47 H122       168.2530   161.8330   130.3590 h1         1 A1D       0.039200
     48 H161       165.3470   164.3720   127.5540 ha         1 A1D       0.124000
     49 H191       165.1620   166.3330   126.5470 ha         1 A1D       0.128500
     50 H232       159.9810   168.9540   126.4440 h1         1 A1D       0.101700
     51 H233       159.9330   170.0080   124.9830 h1         1 A1D       0.101700
     52 H231       160.8190   168.4400   124.9350 h1         1 A1D       0.101700
     53 H271       163.1290   167.5540   130.1810 ha         1 A1D       0.128500
     54 H291       165.7970   165.1180   132.3900 h4         1 A1D       0.037100
     55 H302       167.9100   158.8910   131.3120 hc         1 A1D       0.056950
     56 H301       169.5130   159.6010   131.1650 hc         1 A1D       0.056950
     57 H311       168.2400   158.2360   133.5870 h1         1 A1D       0.062200
     58 H312       169.7410   157.7990   132.7640 h1         1 A1D       0.062200
     59 S22        162.0220   170.1180   126.1050 sy         1 A1D       1.057500
     60 C02        172.0500   158.8520   138.3320 c3         1 A1D      -0.090000
@<TRIPOS>BOND
     1     1    14 1   
     2     1    15 1   
     3     1    31 1   
     4     1    32 1   
     5     2    18 ar  
     6     2    19 ar  
     7     2    33 1   
     8     3    19 ar  
     9     3    20 1   
    10     3    26 ar  
    11     4     5 ar  
    12     4    21 ar  
    13     4    34 1   
    14     5     6 ar  
    15     5    59 1   
    16     6    25 ar  
    17     6    35 1   
    18     7    36 1   
    19     7    37 1   
    20     7    38 1   
    21     7    60 1   
    22     8    40 1   
    23     8    41 1   
    24     8    42 1   
    25     8    60 1   
    26     9    10 2   
    27     9    30 1   
    28     9    60 1   
    29    10    11 1   
    30    11    12 1   
    31    12    13 1   
    32    12    30 2   
    33    13    14 1   
    34    13    29 1   
    35    14    43 1   
    36    14    44 1   
    37    15    16 1   
    38    15    28 1   
    39    15    45 1   
    40    16    17 1   
    41    16    46 1   
    42    16    47 1   
    43    17    18 1   
    44    18    27 ar  
    45    19    48 1   
    46    20    21 ar  
    47    20    25 ar  
    48    21    49 1   
    49    22    50 1   
    50    22    51 1   
    51    22    52 1   
    52    22    59 1   
    53    23    59 2   
    54    24    59 2   
    55    25    53 1   
    56    26    27 ar  
    57    27    54 1   
    58    28    29 1   
    59    28    55 1   
    60    28    56 1   
    61    29    57 1   
    62    29    58 1   
    63    39    60 1   
@<TRIPOS>SUBSTRUCTURE
     1 A1D         1 TEMP              0 ****  ****    0 ROOT
