@<TRIPOS>MOLECULE
A1E
   81    85     1     0     0
SMALL
No Charge or Current Charge


@<TRIPOS>ATOM
      1 C1          10.4340     2.2730     1.5180 c6         1 A1E      -0.063400
      2 C2           8.9560     1.9960     1.1930 c6         1 A1E      -0.113400
      3 C3           8.7360     0.5080     0.8200 c6         1 A1E       0.241700
      4 C4           9.8270    -0.0220    -0.1060 cc         1 A1E      -0.189200
      5 C5          11.0200     0.6550    -0.3610 cd         1 A1E       0.071400
      6 C6          11.2990     2.0080     0.2690 c6         1 A1E      -0.052200
      7 C7           9.6200    -1.3230    -0.6970 cc         1 A1E      -0.066000
      8 C8          10.5850    -1.8590    -1.5210 cd         1 A1E      -0.331200
      9 C9          11.8350    -1.1550    -1.8210 c          1 A1E       0.553200
     10 N10         11.9460     0.0630    -1.2030 ns         1 A1E      -0.366100
     11 O11         12.7070    -1.6000    -2.5500 o          1 A1E      -0.569000
     12 N12          7.4230     0.3230     0.1710 n7         1 A1E      -0.871400
     13 C13          6.2130     0.5830     0.9710 c3         1 A1E       0.165800
     14 C14          4.9540     0.2260     0.1570 c3         1 A1E      -0.080400
     15 C15          3.6440     0.4690     0.9400 c3         1 A1E      -0.073400
     16 C16          2.3790     0.1130     0.1290 c3         1 A1E      -0.074400
     17 C17          1.0710     0.3560     0.9130 c3         1 A1E      -0.074400
     18 C18         -0.1950     0.0000     0.1020 c3         1 A1E      -0.074400
     19 C19         -1.5030     0.2440     0.8860 c3         1 A1E      -0.073400
     20 C20         -2.7680    -0.1130     0.0750 c3         1 A1E      -0.074400
     21 C21         -4.0770     0.1300     0.8580 c3         1 A1E      -0.083400
     22 C22         -5.3360    -0.2250     0.0440 c3         1 A1E       0.178800
     23 N23         -6.5480     0.0290     0.8340 nu         1 A1E      -0.916200
     24 C24         -7.8450    -0.1010     0.3140 ca         1 A1E       0.285000
     25 C25         -8.5880    -1.2860     0.5300 ca         1 A1E      -0.114000
     26 C26         -9.9000    -1.3710     0.0010 ca         1 A1E       0.286000
     27 N27        -10.4590    -0.3570    -0.6900 nb         1 A1E      -0.686000
     28 C28         -9.7520     0.7750    -0.8820 ca         1 A1E       0.389300
     29 C29         -8.4350     0.9570    -0.4100 ca         1 A1E      -0.126300
     30 C30         -8.0520    -2.3850     1.2480 ca         1 A1E      -0.100000
     31 C31         -8.8120    -3.5490     1.4400 ca         1 A1E      -0.109000
     32 C32        -10.1100    -3.6320     0.9190 ca         1 A1E      -0.104000
     33 C33        -10.6450    -2.5480     0.2040 ca         1 A1E      -0.083000
     34 C34        -10.4980     1.8590    -1.6650 c6         1 A1E      -0.132700
     35 C35         -9.8940     3.2680    -1.4840 c6         1 A1E      -0.074400
     36 C36         -8.3670     3.2180    -1.6750 c6         1 A1E      -0.078400
     37 C37         -7.7080     2.3040    -0.6160 c6         1 A1E      -0.017100
     38 H11         10.5630     3.3120     1.8500 hc         1 A1E       0.049200
     39 H12A        10.7630     1.6310     2.3470 hc         1 A1E       0.049200
     40 H21          8.6400     2.6470     0.3650 hc         1 A1E       0.046200
     41 H22          8.3340     2.2630     2.0570 hc         1 A1E       0.046200
     42 H3           8.7590    -0.0830     1.7490 h1         1 A1E       0.062700
     43 H61         12.3600     2.0910     0.5410 hc         1 A1E       0.059200
     44 H62         11.1150     2.7980    -0.4720 hc         1 A1E       0.059200
     45 H7           8.7020    -1.8700    -0.4860 ha         1 A1E       0.202000
     46 H8          10.4750    -2.8290    -1.9920 ha         1 A1E       0.208000
     47 H10         12.8110     0.5480    -1.4040 hn         1 A1E       0.320500
     48 H12          7.3960     0.9140    -0.6660 hn         1 A1E       0.413000
     49 H131         6.2280    -0.0200     1.8900 h1         1 A1E       0.028200
     50 H132         6.1600     1.6400     1.2630 h1         1 A1E       0.028200
     51 H141         4.9380     0.8220    -0.7630 hc         1 A1E       0.046200
     52 H142         5.0050    -0.8280    -0.1410 hc         1 A1E       0.046200
     53 H151         3.6610    -0.1260     1.8620 hc         1 A1E       0.037200
     54 H152         3.5950     1.5240     1.2410 hc         1 A1E       0.037200
     55 H161         2.3630     0.7090    -0.7920 hc         1 A1E       0.038700
     56 H162         2.4280    -0.9410    -0.1710 hc         1 A1E       0.038700
     57 H171         1.0870    -0.2390     1.8350 hc         1 A1E       0.037700
     58 H172         1.0210     1.4110     1.2130 hc         1 A1E       0.037700
     59 H181        -0.2110     0.5960    -0.8200 hc         1 A1E       0.038200
     60 H182        -0.1450    -1.0540    -0.1980 hc         1 A1E       0.038200
     61 H191        -1.4870    -0.3520     1.8080 hc         1 A1E       0.038700
     62 H192        -1.5530     1.2980     1.1860 hc         1 A1E       0.038700
     63 H201        -2.7850     0.4830    -0.8470 hc         1 A1E       0.039200
     64 H202        -2.7190    -1.1670    -0.2250 hc         1 A1E       0.039200
     65 H211        -4.0620    -0.4660     1.7790 hc         1 A1E       0.046700
     66 H212        -4.1280     1.1850     1.1550 hc         1 A1E       0.046700
     67 H221        -5.3470     0.3690    -0.8800 h1         1 A1E       0.038700
     68 H222        -5.2960    -1.2850    -0.2450 h1         1 A1E       0.038700
     69 H23         -6.4810    -0.3220     1.7890 hn         1 A1E       0.433000
     70 H30         -7.0460    -2.3540     1.6590 ha         1 A1E       0.105000
     71 H31         -8.3930    -4.3880     1.9920 ha         1 A1E       0.113000
     72 H32        -10.7010    -4.5340     1.0660 ha         1 A1E       0.116000
     73 H33        -11.6520    -2.6180    -0.1980 ha         1 A1E       0.130000
     74 H341       -11.5560     1.8780    -1.3710 hc         1 A1E       0.062200
     75 H342       -10.4810     1.5920    -2.7310 hc         1 A1E       0.062200
     76 H351       -10.1300     3.6510    -0.4810 hc         1 A1E       0.045700
     77 H352       -10.3440     3.9660    -2.2030 hc         1 A1E       0.045700
     78 H361        -7.9430     4.2290    -1.6100 hc         1 A1E       0.041200
     79 H362        -8.1330     2.8450    -2.6820 hc         1 A1E       0.041200
     80 H371        -7.6790     2.8340     0.3460 hc         1 A1E       0.054200
     81 H372        -6.6620     2.1450    -0.9030 hc         1 A1E       0.054200
@<TRIPOS>BOND
     1     1     2 1   
     2     1     6 1   
     3     1    38 1   
     4     1    39 1   
     5     2     3 1   
     6     2    40 1   
     7     2    41 1   
     8     3     4 1   
     9     3    12 1   
    10     3    42 1   
    11     4     5 2   
    12     4     7 1   
    13     5     6 1   
    14     5    10 1   
    15     6    43 1   
    16     6    44 1   
    17     7     8 2   
    18     7    45 1   
    19     8     9 1   
    20     8    46 1   
    21     9    10 1   
    22     9    11 2   
    23    10    47 1   
    24    12    13 1   
    25    12    48 1   
    26    13    14 1   
    27    13    49 1   
    28    13    50 1   
    29    14    15 1   
    30    14    51 1   
    31    14    52 1   
    32    15    16 1   
    33    15    53 1   
    34    15    54 1   
    35    16    17 1   
    36    16    55 1   
    37    16    56 1   
    38    17    18 1   
    39    17    57 1   
    40    17    58 1   
    41    18    19 1   
    42    18    59 1   
    43    18    60 1   
    44    19    20 1   
    45    19    61 1   
    46    19    62 1   
    47    20    21 1   
    48    20    63 1   
    49    20    64 1   
    50    21    22 1   
    51    21    65 1   
    52    21    66 1   
    53    22    23 1   
    54    22    67 1   
    55    22    68 1   
    56    23    24 1   
    57    23    69 1   
    58    24    25 ar  
    59    24    29 ar  
    60    25    26 ar  
    61    25    30 ar  
    62    26    27 ar  
    63    26    33 ar  
    64    27    28 ar  
    65    28    29 ar  
    66    28    34 1   
    67    29    37 1   
    68    30    31 ar  
    69    30    70 1   
    70    31    32 ar  
    71    31    71 1   
    72    32    33 ar  
    73    32    72 1   
    74    33    73 1   
    75    34    35 1   
    76    34    74 1   
    77    34    75 1   
    78    35    36 1   
    79    35    76 1   
    80    35    77 1   
    81    36    37 1   
    82    36    78 1   
    83    36    79 1   
    84    37    80 1   
    85    37    81 1   
@<TRIPOS>SUBSTRUCTURE
     1 A1E         1 TEMP              0 ****  ****    0 ROOT
