@<TRIPOS>MOLECULE
A1E
   81    85     1     0     0
SMALL
abcg2


@<TRIPOS>ATOM
      1 C1          10.3000     2.0040     1.7020 c6         1 A1E      -0.063400
      2 C2           8.8620     1.9080     1.2130 c6         1 A1E      -0.113400
      3 C3           8.5520     0.5110     0.6720 c6         1 A1E       0.241700
      4 C4           9.6520     0.0340    -0.2540 cc         1 A1E      -0.189200
      5 C5          10.8800     0.6280    -0.2950 cd         1 A1E       0.071400
      6 C6          11.2690     1.8040     0.5450 c6         1 A1E      -0.052200
      7 C7           9.4480    -1.0830    -1.1050 cc         1 A1E      -0.066000
      8 C8          10.4130    -1.5480    -1.9420 cd         1 A1E      -0.331200
      9 C9          11.7010    -0.9170    -2.0070 c          1 A1E       0.553200
     10 N10         11.8300     0.1520    -1.1450 ns         1 A1E      -0.366100
     11 O11         12.6370    -1.2510    -2.7330 o          1 A1E      -0.569000
     12 N12          7.2720     0.3930    -0.0030 n7         1 A1E      -0.871400
     13 C13          6.1080     0.5210     0.8560 c3         1 A1E       0.165800
     14 C14          4.8280     0.3030     0.0650 c3         1 A1E      -0.080400
     15 C15          3.5750     0.4080     0.9250 c3         1 A1E      -0.073400
     16 C16          2.2920     0.2030     0.1310 c3         1 A1E      -0.074400
     17 C17          1.0310     0.3080     0.9810 c3         1 A1E      -0.074400
     18 C18         -0.2470     0.1020     0.1790 c3         1 A1E      -0.074400
     19 C19         -1.5140     0.2270     1.0170 c3         1 A1E      -0.073400
     20 C20         -2.7850     0.0030     0.2080 c3         1 A1E      -0.074400
     21 C21         -4.0560     0.1760     1.0300 c3         1 A1E      -0.083400
     22 C22         -5.3080    -0.1090     0.2190 c3         1 A1E       0.178800
     23 N23         -6.5080     0.1370     1.0200 nu         1 A1E      -0.916200
     24 C24         -7.7440    -0.0640     0.3980 ca         1 A1E       0.285000
     25 C25         -8.5120    -1.2350     0.6700 ca         1 A1E      -0.114000
     26 C26         -9.7840    -1.3420     0.0610 ca         1 A1E       0.286000
     27 N27        -10.2640    -0.4030    -0.7800 nb         1 A1E      -0.686000
     28 C28         -9.5340     0.6560    -1.0390 ca         1 A1E       0.389300
     29 C29         -8.2550     0.8890    -0.4660 ca         1 A1E      -0.126300
     30 C30         -8.0660    -2.2880     1.5030 ca         1 A1E      -0.100000
     31 C31         -8.8600    -3.3780     1.7420 ca         1 A1E      -0.109000
     32 C32        -10.1390    -3.4670     1.1580 ca         1 A1E      -0.104000
     33 C33        -10.5880    -2.4740     0.3320 ca         1 A1E      -0.083000
     34 C34        -10.1370     1.6490    -1.9960 c6         1 A1E      -0.132700
     35 C35         -9.6050     3.0610    -1.8080 c6         1 A1E      -0.074400
     36 C36         -8.0860     3.0300    -1.8350 c6         1 A1E      -0.078400
     37 C37         -7.5350     2.1980    -0.6840 c6         1 A1E      -0.017100
     38 H11         10.4850     2.9730     2.1680 hc         1 A1E       0.049200
     39 H12A        10.4800     1.2460     2.4690 hc         1 A1E       0.049200
     40 H21          8.6960     2.6440     0.4160 hc         1 A1E       0.046200
     41 H22          8.1690     2.1550     2.0190 hc         1 A1E       0.046200
     42 H3           8.5140    -0.1780     1.5260 h1         1 A1E       0.062700
     43 H61         12.2890     1.6700     0.9140 hc         1 A1E       0.059200
     44 H62         11.2870     2.6970    -0.0890 hc         1 A1E       0.059200
     45 H7           8.4810    -1.5690    -1.0850 ha         1 A1E       0.202000
     46 H8          10.2360    -2.4030    -2.5800 ha         1 A1E       0.208000
     47 H10         12.7310     0.6140    -1.1470 hn         1 A1E       0.320500
     48 H12          7.2220     1.0840    -0.7440 hn         1 A1E       0.413000
     49 H131         6.1820    -0.2380     1.6420 h1         1 A1E       0.028200
     50 H132         6.0500     1.4920     1.3720 h1         1 A1E       0.028200
     51 H141         4.7730     1.0420    -0.7430 hc         1 A1E       0.046200
     52 H142         4.8670    -0.6790    -0.4160 hc         1 A1E       0.046200
     53 H151         3.6240    -0.3310     1.7330 hc         1 A1E       0.037200
     54 H152         3.5480     1.3890     1.4130 hc         1 A1E       0.037200
     55 H161         2.2460     0.9420    -0.6770 hc         1 A1E       0.038700
     56 H162         2.3190    -0.7770    -0.3560 hc         1 A1E       0.038700
     57 H171         1.0750    -0.4280     1.7910 hc         1 A1E       0.037700
     58 H172         1.0020     1.2910     1.4660 hc         1 A1E       0.037700
     59 H181        -0.2820     0.8300    -0.6390 hc         1 A1E       0.038200
     60 H182        -0.2230    -0.8850    -0.2960 hc         1 A1E       0.038200
     61 H191        -1.4780    -0.4920     1.8420 hc         1 A1E       0.038700
     62 H192        -1.5460     1.2190     1.4800 hc         1 A1E       0.038700
     63 H201        -2.8040     0.7000    -0.6360 hc         1 A1E       0.039200
     64 H202        -2.7650    -1.0020    -0.2280 hc         1 A1E       0.039200
     65 H211        -4.0250    -0.4930     1.8980 hc         1 A1E       0.046700
     66 H212        -4.1070     1.1960     1.4230 hc         1 A1E       0.046700
     67 H221        -5.3220     0.5360    -0.6610 h1         1 A1E       0.038700
     68 H222        -5.2810    -1.1410    -0.1540 h1         1 A1E       0.038700
     69 H23         -6.4460    -0.3890     1.8800 hn         1 A1E       0.433000
     70 H30         -7.0820    -2.2530     1.9540 ha         1 A1E       0.105000
     71 H31         -8.5020    -4.1770     2.3780 ha         1 A1E       0.113000
     72 H32        -10.7620    -4.3290     1.3600 ha         1 A1E       0.116000
     73 H33        -11.5650    -2.5320    -0.1320 ha         1 A1E       0.130000
     74 H341       -11.2230     1.6110    -1.8960 hc         1 A1E       0.062200
     75 H342        -9.9120     1.3170    -3.0170 hc         1 A1E       0.062200
     76 H351        -9.9530     3.4710    -0.8550 hc         1 A1E       0.045700
     77 H352        -9.9950     3.7110    -2.5940 hc         1 A1E       0.045700
     78 H361        -7.6720     4.0380    -1.7780 hc         1 A1E       0.041200
     79 H362        -7.7540     2.6080    -2.7880 hc         1 A1E       0.041200
     80 H371        -7.6020     2.7740     0.2460 hc         1 A1E       0.054200
     81 H372        -6.4700     2.0380    -0.8470 hc         1 A1E       0.054200
@<TRIPOS>BOND
     1     1     2 1   
     2     1     6 1   
     3     1    38 1   
     4     1    39 1   
     5     2     3 1   
     6     2    40 1   
     7     2    41 1   
     8     3     4 1   
     9     3    12 1   
    10     3    42 1   
    11     4     5 2   
    12     4     7 1   
    13     5     6 1   
    14     5    10 1   
    15     6    43 1   
    16     6    44 1   
    17     7     8 2   
    18     7    45 1   
    19     8     9 1   
    20     8    46 1   
    21     9    10 1   
    22     9    11 2   
    23    10    47 1   
    24    12    13 1   
    25    12    48 1   
    26    13    14 1   
    27    13    49 1   
    28    13    50 1   
    29    14    15 1   
    30    14    51 1   
    31    14    52 1   
    32    15    16 1   
    33    15    53 1   
    34    15    54 1   
    35    16    17 1   
    36    16    55 1   
    37    16    56 1   
    38    17    18 1   
    39    17    57 1   
    40    17    58 1   
    41    18    19 1   
    42    18    59 1   
    43    18    60 1   
    44    19    20 1   
    45    19    61 1   
    46    19    62 1   
    47    20    21 1   
    48    20    63 1   
    49    20    64 1   
    50    21    22 1   
    51    21    65 1   
    52    21    66 1   
    53    22    23 1   
    54    22    67 1   
    55    22    68 1   
    56    23    24 1   
    57    23    69 1   
    58    24    25 ar  
    59    24    29 ar  
    60    25    26 ar  
    61    25    30 ar  
    62    26    27 ar  
    63    26    33 ar  
    64    27    28 ar  
    65    28    29 ar  
    66    28    34 1   
    67    29    37 1   
    68    30    31 ar  
    69    30    70 1   
    70    31    32 ar  
    71    31    71 1   
    72    32    33 ar  
    73    32    72 1   
    74    33    73 1   
    75    34    35 1   
    76    34    74 1   
    77    34    75 1   
    78    35    36 1   
    79    35    76 1   
    80    35    77 1   
    81    36    37 1   
    82    36    78 1   
    83    36    79 1   
    84    37    80 1   
    85    37    81 1   
@<TRIPOS>SUBSTRUCTURE
     1 A1E         1 TEMP              0 ****  ****    0 ROOT
