@<TRIPOS>MOLECULE
A1F
   50    52     1     0     0
SMALL
No Charge or Current Charge


@<TRIPOS>ATOM
      1 C1           3.4970    -0.7400     0.3540 ca         1 A1F      -0.128300
      2 C2           4.6070    -0.4980     1.1900 ca         1 A1F       0.197000
      3 C3           3.6220    -1.6720    -0.6940 ca         1 A1F      -0.057000
      4 C4           2.1680    -0.0090     0.5610 c3         1 A1F      -0.268100
      5 C5           5.8200    -1.1750     0.9830 ca         1 A1F      -0.154000
      6 C6           5.9410    -2.1070    -0.0640 ca         1 A1F      -0.034300
      7 C7           4.8370    -2.3490    -0.9020 ca         1 A1F      -0.129000
      8 C8          -4.3760    -2.6440     0.2270 c3         1 A1F      -0.096400
      9 C9          -4.9220    -1.5360    -0.6990 c3         1 A1F       0.088000
     10 C10         -0.7420     1.5370    -0.0290 ca         1 A1F       0.205000
     11 C11         -1.0320     0.4860    -0.9210 ca         1 A1F      -0.045000
     12 C12         -1.7700     2.0240     0.7920 ca         1 A1F      -0.106000
     13 C13         -3.0580     1.4550     0.7560 ca         1 A1F      -0.116300
     14 C14         -3.3290     0.3410    -0.0720 ca         1 A1F      -0.001000
     15 C15         -4.1600     2.0380     1.6350 c6         1 A1F      -0.026100
     16 C16         -2.3140    -0.0900    -0.9560 ca         1 A1F      -0.143000
     17 C17          7.2550    -2.8380    -0.2930 c3         1 A1F      -0.052800
     18 C18         -5.5170     1.9500     0.9150 c6         1 A1F      -0.159400
     19 C19         -5.7840     0.5360     0.3970 c          1 A1F       0.570000
     20 C20         -4.6280    -4.0630    -0.3190 c3         1 A1F      -0.089100
     21 F1           4.5170     0.3890     2.2070 f          1 A1F      -0.171000
     22 N1          -4.6870    -0.1630    -0.1710 n          1 A1F      -0.223400
     23 N2           0.5170     2.1410     0.0530 nu         1 A1F      -0.876100
     24 O1           2.9650     2.5150     0.1900 o          1 A1F      -0.516000
     25 O2          -6.9050     0.0490     0.4980 o          1 A1F      -0.535000
     26 O3           1.9780     1.2660    -1.7910 o          1 A1F      -0.516000
     27 S            2.0170     1.5400    -0.3520 s6         1 A1F       1.169100
     28 H1           2.7790    -1.8710    -1.3530 ha         1 A1F       0.125000
     29 H2           1.3310    -0.6350     0.2370 h1         1 A1F       0.099700
     30 H3           2.0230     0.2490     1.6150 h1         1 A1F       0.099700
     31 H4           6.6630    -0.9730     1.6380 ha         1 A1F       0.134000
     32 H5           4.9190    -3.0640    -1.7170 ha         1 A1F       0.121000
     33 H6          -3.2970    -2.5050     0.3720 hc         1 A1F       0.049200
     34 H7          -4.8450    -2.5510     1.2140 hc         1 A1F       0.049200
     35 H8          -4.4680    -1.6260    -1.6930 h1         1 A1F       0.063700
     36 H9          -5.9950    -1.7060    -0.8500 h1         1 A1F       0.063700
     37 H10         -0.2770     0.1120    -1.6040 ha         1 A1F       0.145000
     38 H11         -1.5710     2.8590     1.4580 ha         1 A1F       0.113000
     39 H12         -4.2030     1.4850     2.5830 hc         1 A1F       0.060200
     40 H13         -3.9440     3.0850     1.8900 hc         1 A1F       0.060200
     41 H14         -2.4930    -0.8820    -1.6770 ha         1 A1F       0.130000
     42 H15          7.8060    -2.9740     0.6450 hc         1 A1F       0.048033
     43 H16          7.0890    -3.8330    -0.7230 hc         1 A1F       0.048033
     44 H17          7.8980    -2.2780    -0.9820 hc         1 A1F       0.048033
     45 H18         -6.3580     2.3110     1.5210 hc         1 A1F       0.079200
     46 H19         -5.4260     2.5870     0.0250 hc         1 A1F       0.079200
     47 H20         -5.7020    -4.2470    -0.4400 hc         1 A1F       0.036033
     48 H21         -4.1410    -4.1950    -1.2930 hc         1 A1F       0.036033
     49 H22         -4.2260    -4.8150     0.3710 hc         1 A1F       0.036033
     50 H23          0.6770     2.8210     0.7850 hn         1 A1F       0.490000
@<TRIPOS>BOND
     1     1     2 ar  
     2     1     3 ar  
     3     1     4 1   
     4     2     5 ar  
     5     2    21 1   
     6     3     7 ar  
     7     3    28 1   
     8     4    27 1   
     9     4    29 1   
    10     4    30 1   
    11     5     6 ar  
    12     5    31 1   
    13     6     7 ar  
    14     6    17 1   
    15     7    32 1   
    16     8     9 1   
    17     8    20 1   
    18     8    33 1   
    19     8    34 1   
    20     9    22 1   
    21     9    35 1   
    22     9    36 1   
    23    10    11 ar  
    24    10    12 ar  
    25    10    23 1   
    26    11    16 ar  
    27    11    37 1   
    28    12    13 ar  
    29    12    38 1   
    30    13    14 ar  
    31    13    15 1   
    32    14    16 ar  
    33    14    22 1   
    34    15    18 1   
    35    15    39 1   
    36    15    40 1   
    37    16    41 1   
    38    17    42 1   
    39    17    43 1   
    40    17    44 1   
    41    18    19 1   
    42    18    45 1   
    43    18    46 1   
    44    19    22 1   
    45    19    25 2   
    46    20    47 1   
    47    20    48 1   
    48    20    49 1   
    49    23    27 1   
    50    23    50 1   
    51    24    27 2   
    52    26    27 2   
@<TRIPOS>SUBSTRUCTURE
     1 A1F         1 TEMP              0 ****  ****    0 ROOT
