@<TRIPOS>MOLECULE
A1F
   50    52     1     0     0
SMALL
abcg2


@<TRIPOS>ATOM
      1 C1           3.3290    -0.2640     0.5840 ca         1 A1F      -0.128300
      2 C2           4.6040     0.2360     0.7930 ca         1 A1F       0.197000
      3 C3           3.2170    -1.6380     0.3720 ca         1 A1F      -0.057000
      4 C4           2.1280     0.6210     0.5570 c3         1 A1F      -0.268100
      5 C5           5.7290    -0.5650     0.8120 ca         1 A1F      -0.154000
      6 C6           5.6040    -1.9340     0.6040 ca         1 A1F      -0.034300
      7 C7           4.3300    -2.4590     0.3830 ca         1 A1F      -0.129000
      8 C8          -4.2760    -2.6420    -0.5270 c3         1 A1F      -0.096400
      9 C9          -5.0340    -1.3310    -0.6960 c3         1 A1F       0.088000
     10 C10         -0.8020     1.4890    -0.7520 ca         1 A1F       0.205000
     11 C11         -1.4910     0.7790    -1.7240 ca         1 A1F      -0.045000
     12 C12         -1.3580     1.6130     0.5160 ca         1 A1F      -0.106000
     13 C13         -2.5800     1.0420     0.8230 ca         1 A1F      -0.116300
     14 C14         -3.2770     0.3260    -0.1590 ca         1 A1F      -0.001000
     15 C15         -3.1880     1.1510     2.1840 c6         1 A1F      -0.026100
     16 C16         -2.7120     0.1980    -1.4270 ca         1 A1F      -0.143000
     17 C17          6.8050    -2.8310     0.6320 c3         1 A1F      -0.052800
     18 C18         -4.6930     1.2760     2.0430 c6         1 A1F      -0.159400
     19 C19         -5.2660     0.1460     1.2280 c          1 A1F       0.570000
     20 C20         -4.8370    -3.7210    -1.4420 c3         1 A1F      -0.089100
     21 F1           4.7570     1.5520     1.0010 f          1 A1F      -0.171000
     22 N1          -4.5170    -0.2620     0.1530 n          1 A1F      -0.223400
     23 N2           0.4410     2.0990    -1.0680 nu         1 A1F      -0.876100
     24 O1           2.8890     2.0560    -1.5410 o          1 A1F      -0.516000
     25 O2          -6.3410    -0.3610     1.4950 o          1 A1F      -0.535000
     26 O3           1.5100    -0.0080    -1.9300 o          1 A1F      -0.516000
     27 S            1.8150     1.1670    -1.1330 s6         1 A1F       1.169100
     28 H1           2.2370    -2.0660     0.2040 ha         1 A1F       0.125000
     29 H2           1.2350     0.0870     0.8850 h1         1 A1F       0.099700
     30 H3           2.2330     1.5180     1.1670 h1         1 A1F       0.099700
     31 H4           6.6990    -0.1180     0.9920 ha         1 A1F       0.134000
     32 H5           4.2080    -3.5230     0.2210 ha         1 A1F       0.121000
     33 H6          -3.2130    -2.4970    -0.7380 hc         1 A1F       0.049200
     34 H7          -4.3470    -2.9590     0.5170 hc         1 A1F       0.049200
     35 H8          -5.0230    -1.0080    -1.7380 h1         1 A1F       0.063700
     36 H9          -6.0800    -1.4780    -0.4390 h1         1 A1F       0.063700
     37 H10         -1.0880     0.6900    -2.7230 ha         1 A1F       0.145000
     38 H11         -0.8280     2.1640     1.2850 ha         1 A1F       0.113000
     39 H12         -2.9440     0.2590     2.7720 hc         1 A1F       0.060200
     40 H13         -2.7800     2.0050     2.7250 hc         1 A1F       0.060200
     41 H14         -3.2170    -0.3420    -2.2140 ha         1 A1F       0.130000
     42 H15          6.7760    -3.4880     1.5030 hc         1 A1F       0.048033
     43 H16          6.8390    -3.4700    -0.2510 hc         1 A1F       0.048033
     44 H17          7.7330    -2.2630     0.6740 hc         1 A1F       0.048033
     45 H18         -5.1900     1.2810     3.0120 hc         1 A1F       0.079200
     46 H19         -4.9460     2.2170     1.5440 hc         1 A1F       0.079200
     47 H20         -5.8960    -3.8970    -1.2440 hc         1 A1F       0.036033
     48 H21         -4.7380    -3.4410    -2.4920 hc         1 A1F       0.036033
     49 H22         -4.3120    -4.6660    -1.3010 hc         1 A1F       0.036033
     50 H23          0.6120     2.9950    -0.6230 hn         1 A1F       0.490000
@<TRIPOS>BOND
     1     1     2 ar  
     2     1     3 ar  
     3     1     4 1   
     4     2     5 ar  
     5     2    21 1   
     6     3     7 ar  
     7     3    28 1   
     8     4    27 1   
     9     4    29 1   
    10     4    30 1   
    11     5     6 ar  
    12     5    31 1   
    13     6     7 ar  
    14     6    17 1   
    15     7    32 1   
    16     8     9 1   
    17     8    20 1   
    18     8    33 1   
    19     8    34 1   
    20     9    22 1   
    21     9    35 1   
    22     9    36 1   
    23    10    11 ar  
    24    10    12 ar  
    25    10    23 1   
    26    11    16 ar  
    27    11    37 1   
    28    12    13 ar  
    29    12    38 1   
    30    13    14 ar  
    31    13    15 1   
    32    14    16 ar  
    33    14    22 1   
    34    15    18 1   
    35    15    39 1   
    36    15    40 1   
    37    16    41 1   
    38    17    42 1   
    39    17    43 1   
    40    17    44 1   
    41    18    19 1   
    42    18    45 1   
    43    18    46 1   
    44    19    22 1   
    45    19    25 2   
    46    20    47 1   
    47    20    48 1   
    48    20    49 1   
    49    23    27 1   
    50    23    50 1   
    51    24    27 2   
    52    26    27 2   
@<TRIPOS>SUBSTRUCTURE
     1 A1F         1 TEMP              0 ****  ****    0 ROOT
