@<TRIPOS>MOLECULE
A1H
   37    40     1     0     0
SMALL
No Charge or Current Charge


@<TRIPOS>ATOM
      1 O01          2.6230     1.4680    -0.3990 o          1 A1H      -0.458000
      2 C02          2.3520     0.2830    -0.2650 c          1 A1H       0.583200
      3 C03          3.2380    -0.8190     0.0630 cc         1 A1H      -0.213300
      4 N04          4.6150    -0.9000     0.2990 na         1 A1H       0.227900
      5 C05          5.3980     0.2160     0.2360 cc         1 A1H      -0.185000
      6 C06          6.6330    -0.3010     0.5240 cd         1 A1H       0.186900
      7 N07          6.5330    -1.6690     0.7400 nd         1 A1H      -0.356000
      8 N08          5.2870    -2.0420     0.6010 nc         1 A1H      -0.186800
      9 C09          2.5760    -2.0270     0.1520 cd         1 A1H       0.058000
     10 N10          1.2250    -1.7400    -0.1060 na         1 A1H      -0.527200
     11 N11          1.0890    -0.3130    -0.3770 n          1 A1H      -0.268700
     12 C12         -0.1640     0.3350    -0.6520 ca         1 A1H       0.275900
     13 N13         -0.1470     1.4470    -1.4130 nb         1 A1H      -0.210000
     14 C14         -1.3380     2.0140    -1.6790 ca         1 A1H       0.191900
     15 N15         -2.5440     1.5770    -1.2710 nb         1 A1H      -0.276000
     16 C16         -2.5680     0.4580    -0.5220 ca         1 A1H       0.413900
     17 N17         -3.8410    -0.0010    -0.0970 nh         1 A1H      -0.778300
     18 C18         -4.9600     0.9720     0.1800 c6         1 A1H       0.184300
     19 C19         -6.3670     0.3080     0.1340 c6         1 A1H       0.137600
     20 O20         -6.4060    -0.8780     0.9580 os         1 A1H      -0.439000
     21 C21         -5.4590    -1.8780     0.5220 c6         1 A1H       0.137600
     22 C22         -4.0020    -1.3330     0.5850 c6         1 A1H       0.184300
     23 C23         -1.3760    -0.2070    -0.1880 ca         1 A1H      -0.335000
     24 H051         5.0620     1.2170     0.0110 h4         1 A1H       0.171000
     25 H061         7.5800     0.2220     0.5880 h4         1 A1H       0.051100
     26 H091         2.9380    -3.0360     0.3580 h4         1 A1H       0.238000
     27 H101         0.4210    -2.3590    -0.2570 hn         1 A1H       0.513000
     28 H141        -1.3250     2.9150    -2.2890 h5         1 A1H       0.055100
     29 H182        -4.8190     1.4250     1.1720 h1         1 A1H       0.065200
     30 H181        -4.9640     1.7950    -0.5490 h1         1 A1H       0.065200
     31 H191        -7.1260     1.0200     0.4900 h1         1 A1H       0.056200
     32 H192        -6.6170     0.0370    -0.9020 h1         1 A1H       0.056200
     33 H212        -5.5520    -2.7670     1.1620 h1         1 A1H       0.056200
     34 H211        -5.7000    -2.1770    -0.5090 h1         1 A1H       0.056200
     35 H221        -3.3530    -2.0870     0.1160 h1         1 A1H       0.065200
     36 H222        -3.7010    -1.2530     1.6400 h1         1 A1H       0.065200
     37 H231        -1.3750    -1.0940     0.4320 ha         1 A1H       0.138000
@<TRIPOS>BOND
     1     1     2 2   
     2     2     3 1   
     3     2    11 1   
     4     3     4 1   
     5     3     9 2   
     6     4     5 1   
     7     4     8 1   
     8     5     6 2   
     9     5    24 1   
    10     6     7 1   
    11     6    25 1   
    12     7     8 2   
    13     9    10 1   
    14     9    26 1   
    15    10    11 1   
    16    10    27 1   
    17    11    12 1   
    18    12    13 ar  
    19    12    23 ar  
    20    13    14 ar  
    21    14    15 ar  
    22    14    28 1   
    23    15    16 ar  
    24    16    17 1   
    25    16    23 ar  
    26    17    18 1   
    27    17    22 1   
    28    18    19 1   
    29    18    29 1   
    30    18    30 1   
    31    19    20 1   
    32    19    31 1   
    33    19    32 1   
    34    20    21 1   
    35    21    22 1   
    36    21    33 1   
    37    21    34 1   
    38    22    35 1   
    39    22    36 1   
    40    23    37 1   
@<TRIPOS>SUBSTRUCTURE
     1 A1H         1 TEMP              0 ****  ****    0 ROOT
