@<TRIPOS>MOLECULE
A1H
   37    40     1     0     0
SMALL
bcc


@<TRIPOS>ATOM
      1 O01          2.5340     1.5110    -0.1630 o          1 A1H      -0.533500
      2 C02          2.2570     0.3310    -0.2220 c          1 A1H       0.725700
      3 C03          3.0800    -0.8330     0.0180 cc         1 A1H      -0.213300
      4 N04          4.4340    -0.7620     0.3550 na         1 A1H       0.177200
      5 C05          5.4750    -0.4950    -0.4580 cc         1 A1H      -0.217600
      6 C06          6.5560    -0.5050     0.3780 cd         1 A1H       0.252200
      7 N07          6.1170    -0.7690     1.6300 nd         1 A1H      -0.356000
      8 N08          4.8430    -0.9150     1.6140 nc         1 A1H      -0.186800
      9 C09          2.3150    -1.9420    -0.1030 cd         1 A1H       0.108000
     10 N10          1.0390    -1.5830    -0.3320 na         1 A1H      -0.472000
     11 N11          1.0040    -0.2200    -0.5100 n          1 A1H      -0.335700
     12 C12         -0.2290     0.4360    -0.5410 ca         1 A1H       0.604200
     13 N13         -0.2210     1.6480    -1.0870 nb         1 A1H      -0.736000
     14 C14         -1.3980     2.2490    -1.1060 ca         1 A1H       0.717900
     15 N15         -2.5520     1.7740    -0.6910 nb         1 A1H      -0.802000
     16 C16         -2.5660     0.5380    -0.1670 ca         1 A1H       0.742200
     17 N17         -3.7560     0.0430     0.2240 nh         1 A1H      -0.778300
     18 C18         -4.9460     0.8760     0.3090 c6         1 A1H       0.184300
     19 C19         -6.1530     0.1130    -0.2010 c6         1 A1H       0.114400
     20 O20         -6.3170    -1.1130     0.4750 os         1 A1H      -0.392600
     21 C21         -5.1800    -1.9260     0.3080 c6         1 A1H       0.114400
     22 C22         -3.9210    -1.2600     0.8410 c6         1 A1H       0.184300
     23 C23         -1.3580    -0.1790    -0.0450 ca         1 A1H      -0.483600
     24 H051         5.3640    -0.3400    -1.5170 h4         1 A1H       0.189000
     25 H061         7.5960    -0.3470     0.1500 h4         1 A1H       0.051100
     26 H091         2.5840    -2.9850    -0.0450 h4         1 A1H       0.188000
     27 H101         0.4430    -2.1330    -0.9380 hn         1 A1H       0.457800
     28 H141        -1.4160     3.2500    -1.5250 h5         1 A1H       0.055100
     29 H182        -5.1060     1.1750     1.3520 h1         1 A1H       0.065200
     30 H181        -4.8070     1.7780    -0.2790 h1         1 A1H       0.065200
     31 H191        -7.0550     0.7040    -0.0350 h1         1 A1H       0.056200
     32 H192        -6.0490    -0.0540    -1.2820 h1         1 A1H       0.056200
     33 H212        -5.3550    -2.8570     0.8490 h1         1 A1H       0.056200
     34 H211        -5.0330    -2.1720    -0.7530 h1         1 A1H       0.056200
     35 H221        -3.0810    -1.9120     0.6140 h1         1 A1H       0.065200
     36 H222        -3.9770    -1.1560     1.9300 h1         1 A1H       0.065200
     37 H231        -1.3000    -1.1410     0.4390 ha         1 A1H       0.156000
@<TRIPOS>BOND
     1     1     2 2   
     2     2     3 1   
     3     2    11 1   
     4     3     4 1   
     5     3     9 2   
     6     4     5 1   
     7     4     8 1   
     8     5     6 2   
     9     5    24 1   
    10     6     7 1   
    11     6    25 1   
    12     7     8 2   
    13     9    10 1   
    14     9    26 1   
    15    10    11 1   
    16    10    27 1   
    17    11    12 1   
    18    12    13 ar  
    19    12    23 ar  
    20    13    14 ar  
    21    14    15 ar  
    22    14    28 1   
    23    15    16 ar  
    24    16    17 1   
    25    16    23 ar  
    26    17    18 1   
    27    17    22 1   
    28    18    19 1   
    29    18    29 1   
    30    18    30 1   
    31    19    20 1   
    32    19    31 1   
    33    19    32 1   
    34    20    21 1   
    35    21    22 1   
    36    21    33 1   
    37    21    34 1   
    38    22    35 1   
    39    22    36 1   
    40    23    37 1   
@<TRIPOS>SUBSTRUCTURE
     1 A1H         1 TEMP              0 ****  ****    0 ROOT
