@<TRIPOS>MOLECULE
A1H
   16    17     1     0     0
SMALL
abcg2


@<TRIPOS>ATOM
      1 C1          16.9470   -10.6660     7.1120 cc         1 A1H       0.652100
      2 C2          15.4250   -11.9680     6.2150 ca         1 A1H       0.157400
      3 C3          14.1780   -12.5410     5.9790 ca         1 A1H      -0.080000
      4 C4          14.0440   -13.5240     5.0130 ca         1 A1H      -0.074000
      5 C5          15.1560   -13.9400     4.2820 ca         1 A1H      -0.031900
      6 C6          16.4130   -13.3930     4.4870 ca         1 A1H      -0.032000
      7 C7          16.5230   -12.4120     5.4580 ca         1 A1H      -0.197000
      8 N1          17.5170    -9.7680     7.9270 nv         1 A1H      -1.021200
      9 N2          15.6940   -10.9870     7.1330 nd         1 A1H      -0.635100
     10 S1          17.9450   -11.5430     5.9490 ss         1 A1H      -0.032200
     11 BR1         14.9520   -15.2890     2.9740 br         1 A1H      -0.098100
     12 H1          13.3160   -12.2160     6.5470 ha         1 A1H       0.134000
     13 H2          13.0730   -13.9650     4.8350 ha         1 A1H       0.131000
     14 H3          17.2720   -13.7160     3.9160 ha         1 A1H       0.137000
     15 H4          18.4310    -9.3980     7.7270 hn         1 A1H       0.494500
     16 H5          16.9090    -9.1760     8.4690 hn         1 A1H       0.494500
@<TRIPOS>BOND
     1     1     8 1   
     2     1     9 2   
     3     1    10 1   
     4     2     3 ar  
     5     2     7 ar  
     6     2     9 1   
     7     3     4 ar  
     8     3    12 1   
     9     4     5 ar  
    10     4    13 1   
    11     5     6 ar  
    12     5    11 1   
    13     6     7 ar  
    14     6    14 1   
    15     7    10 1   
    16     8    15 1   
    17     8    16 1   
@<TRIPOS>SUBSTRUCTURE
     1 A1H         1 TEMP              0 ****  ****    0 ROOT
