@<TRIPOS>MOLECULE
A1H
   41    44     1     0     0
SMALL
abcg2


@<TRIPOS>ATOM
      1 C2         -15.1900    18.0630     3.7480 c          1 A1H       0.569000
      2 C4         -14.4840    16.3330     5.0730 c          1 A1H       0.617000
      3 C7         -14.4940    17.0410     2.8490 c5         1 A1H       0.040400
      4 C8         -13.2550    17.6660     2.1880 c3         1 A1H       0.101000
      5 C12        -10.4150    18.1610     4.5940 cc         1 A1H       0.146500
      6 C17         -9.5650    20.7930     6.6380 ca         1 A1H       0.041800
      7 C18         -8.4230    21.0110     7.3970 ca         1 A1H      -0.143000
      8 C19         -8.3360    22.1940     8.1030 ca         1 A1H       0.185000
      9 C21         -9.3290    23.1540     8.0800 ca         1 A1H      -0.148000
     10 C23        -10.5880    21.7310     6.5870 ca         1 A1H      -0.119000
     11 C24        -15.4650    16.5790     1.7800 cx         1 A1H      -0.138700
     12 O1         -15.6670    19.1130     3.3940 o          1 A1H      -0.509000
     13 N3         -15.1600    17.5510     5.0050 ns         1 A1H      -0.482500
     14 O5         -14.2660    15.7090     6.0840 o          1 A1H      -0.536000
     15 N6         -14.1460    16.0200     3.8020 ns         1 A1H      -0.512900
     16 N9         -12.3090    18.1800     3.1420 ns         1 A1H      -0.498900
     17 C10        -11.2640    17.4710     3.6000 c          1 A1H       0.547600
     18 O11        -10.9860    16.3350     3.2490 o          1 A1H      -0.595100
     19 C13         -9.2480    17.6810     5.2020 cc         1 A1H       0.266900
     20 N14         -8.8090    18.6080     6.0240 nd         1 A1H      -0.494800
     21 N15         -9.6780    19.5910     5.9060 na         1 A1H       0.359800
     22 N16        -10.6530    19.3720     5.0660 nd         1 A1H      -0.486800
     23 F20         -7.2370    22.4150     8.8350 f          1 A1H      -0.169000
     24 C22        -10.4570    22.9050     7.3110 ca         1 A1H      -0.074000
     25 C25        -16.5370    15.5850     2.0890 cx         1 A1H      -0.116900
     26 C26        -15.3850    15.1990     1.2100 cx         1 A1H      -0.116900
     27 H1         -12.7770    16.9150     1.5590 h1         1 A1H       0.078700
     28 H2         -13.5750    18.4790     1.5370 h1         1 A1H       0.078700
     29 H3          -7.6210    20.2870     7.4400 ha         1 A1H       0.163000
     30 H4          -9.2260    24.0700     8.6460 ha         1 A1H       0.140000
     31 H5         -11.4730    21.5510     5.9950 ha         1 A1H       0.144000
     32 H6         -15.7280    17.3710     1.0880 hc         1 A1H       0.097700
     33 H7         -15.5490    18.0050     5.8200 hn         1 A1H       0.355500
     34 H8         -13.5090    15.2650     3.6010 hn         1 A1H       0.361500
     35 H9         -12.4290    19.1260     3.4720 hn         1 A1H       0.340500
     36 H10         -8.7400    16.7400     5.0770 h4         1 A1H       0.074100
     37 H11        -11.2500    23.6380     7.2760 ha         1 A1H       0.126000
     38 H12        -17.5070    15.7370     1.6340 hc         1 A1H       0.078200
     39 H13        -16.5720    15.1570     3.0830 hc         1 A1H       0.078200
     40 H14        -15.5590    15.0860     0.1480 hc         1 A1H       0.078200
     41 H15        -14.6530    14.5110     1.6130 hc         1 A1H       0.078200
@<TRIPOS>BOND
     1     1     3 1   
     2     1    12 2   
     3     1    13 1   
     4     2    13 1   
     5     2    14 2   
     6     2    15 1   
     7     3     4 1   
     8     3    11 1   
     9     3    15 1   
    10     4    16 1   
    11     4    27 1   
    12     4    28 1   
    13     5    17 1   
    14     5    19 1   
    15     5    22 2   
    16     6     7 ar  
    17     6    10 ar  
    18     6    21 1   
    19     7     8 ar  
    20     7    29 1   
    21     8     9 ar  
    22     8    23 1   
    23     9    24 ar  
    24     9    30 1   
    25    10    24 ar  
    26    10    31 1   
    27    11    25 1   
    28    11    26 1   
    29    11    32 1   
    30    13    33 1   
    31    15    34 1   
    32    16    17 1   
    33    16    35 1   
    34    17    18 2   
    35    19    20 2   
    36    19    36 1   
    37    20    21 1   
    38    21    22 1   
    39    24    37 1   
    40    25    26 1   
    41    25    38 1   
    42    25    39 1   
    43    26    40 1   
    44    26    41 1   
@<TRIPOS>SUBSTRUCTURE
     1 A1H         1 TEMP              0 ****  ****    0 ROOT
