@<TRIPOS>MOLECULE
A1H
   17    18     1     0     0
SMALL
No Charge or Current Charge


@<TRIPOS>ATOM
      1 C1          16.5200   -14.3190     1.9950 ca         1 A1H       0.283000
      2 C2          17.0430   -13.3220     2.8410 ca         1 A1H      -0.150000
      3 C3          16.2940   -12.9150     3.9550 ca         1 A1H      -0.032800
      4 C4          16.6760   -11.9130     4.9200 cc         1 A1H      -0.182200
      5 C5          15.7090   -11.7500     5.8990 cd         1 A1H      -0.149400
      6 C6          15.0630   -13.4790     4.2250 ca         1 A1H      -0.197000
      7 C7          14.5220   -14.4740     3.3970 ca         1 A1H      -0.041000
      8 C8          15.2630   -14.8920     2.2730 ca         1 A1H      -0.160000
      9 N1          17.2340   -14.7330     0.9010 nv         1 A1H      -1.067000
     10 S1          14.2910   -12.8180     5.6810 ss         1 A1H       0.045400
     11 H1          18.0100   -12.8720     2.6360 ha         1 A1H       0.115000
     12 H2          17.6040   -11.3470     4.8940 ha         1 A1H       0.202000
     13 H3          15.7330   -11.0680     6.7430 h4         1 A1H       0.214000
     14 H4          13.5510   -14.9130     3.6160 ha         1 A1H       0.119000
     15 H5          14.8590   -15.6610     1.6210 ha         1 A1H       0.112000
     16 H6          18.1950   -14.4210     0.7730 hn         1 A1H       0.444000
     17 H7          16.9240   -15.5430     0.3670 hn         1 A1H       0.444000
@<TRIPOS>BOND
     1     1     2 ar  
     2     1     8 ar  
     3     1     9 1   
     4     2     3 ar  
     5     2    11 1   
     6     3     4 1   
     7     3     6 ar  
     8     4     5 2   
     9     4    12 1   
    10     5    10 1   
    11     5    13 1   
    12     6     7 ar  
    13     6    10 1   
    14     7     8 ar  
    15     7    14 1   
    16     8    15 1   
    17     9    16 1   
    18     9    17 1   
@<TRIPOS>SUBSTRUCTURE
     1 A1H         1 TEMP              0 ****  ****    0 ROOT
