@<TRIPOS>MOLECULE
A1H
   29    30     1     0     0
SMALL
No Charge or Current Charge


@<TRIPOS>ATOM
      1 C4          -0.4150    25.1020    26.6290 ca         1 A1H      -0.092600
      2 C5          -0.2080    26.0170    27.6790 ca         1 A1H      -0.158000
      3 C6          -1.1570    26.1550    28.7160 ca         1 A1H       0.217500
      4 C8          -2.5170    24.4850    27.7040 ca         1 A1H       0.271500
      5 C10         -1.8580    23.4020    25.5190 cc         1 A1H      -0.028000
      6 C13         -2.6470    22.4680    23.6380 cd         1 A1H      -0.153000
      7 C21         -3.7990    23.6060    27.7780 c          1 A1H       0.636500
      8 C24         -0.8990    27.1790    29.8680 c          1 A1H       0.619500
      9 C12         -1.7030    21.5930    24.1230 cc         1 A1H      -0.307600
     10 C14         -2.7480    23.6070    24.4830 cd         1 A1H      -0.206600
     11 C18         -1.3170    20.2990    23.5060 c          1 A1H       0.751600
     12 C2           0.6190    24.9700    25.5390 c          1 A1H       0.740600
     13 C9          -1.5990    24.3310    26.6250 ca         1 A1H       0.002000
     14 N11         -1.2050    22.1940    25.2820 na         1 A1H      -0.062000
     15 N7          -2.2890    25.3860    28.7190 nb         1 A1H      -0.677000
     16 O1           1.3530    23.9920    25.5590 o          1 A1H      -0.768000
     17 O16         -4.3740    24.8000    23.2950 o          1 A1H      -0.787000
     18 O17         -3.6040    25.7380    25.0500 o          1 A1H      -0.787000
     19 O19         -1.8640    19.9360    22.4770 o          1 A1H      -0.804500
     20 O20         -0.4560    19.6360    24.0620 o          1 A1H      -0.804500
     21 O22         -3.7020    22.3920    27.6200 o          1 A1H      -0.759500
     22 O23         -4.8610    24.1170    28.1280 o          1 A1H      -0.759500
     23 O25          0.1190    27.8620    29.8470 o          1 A1H      -0.787000
     24 O26         -1.7130    27.2890    30.7810 o          1 A1H      -0.787000
     25 O3           0.7660    25.9040    24.7630 o          1 A1H      -0.768000
     26 H5           0.6960    26.6190    27.6840 ha         1 A1H       0.094000
     27 H13         -3.2250    22.3170    22.7310 ha         1 A1H       0.082000
     28 H11         -0.4670    21.8110    25.8630 hn         1 A1H       0.334000
     29 C15         -3.6380    24.7980    24.2720 c          1 A1H       0.747600
@<TRIPOS>BOND
     1     1     2 ar  
     2     1    12 1   
     3     1    13 ar  
     4     2     3 ar  
     5     2    26 1   
     6     3     8 1   
     7     3    15 ar  
     8     4     7 1   
     9     4    13 ar  
    10     4    15 ar  
    11     5    10 2   
    12     5    13 1   
    13     5    14 1   
    14     6     9 2   
    15     6    10 1   
    16     6    27 1   
    17     7    21 1   
    18     7    22 1   
    19     8    23 1   
    20     8    24 1   
    21     9    11 1   
    22     9    14 1   
    23    10    29 1   
    24    11    19 1   
    25    11    20 1   
    26    12    16 1   
    27    12    25 1   
    28    14    28 1   
    29    17    29 1   
    30    18    29 1   
@<TRIPOS>SUBSTRUCTURE
     1 A1H         1 TEMP              0 ****  ****    0 ROOT
