@<TRIPOS>MOLECULE
A1H
   20    20     1     0     0
SMALL
abcg2


@<TRIPOS>ATOM
      1 C1          19.3180   -27.6160    12.0890 c3         1 A1H      -0.089100
      2 C2          18.2480   -28.4480    12.7910 c3         1 A1H       0.211800
      3 C3          17.1720   -27.5390    13.3400 ca         1 A1H      -0.073300
      4 C4          16.0310   -27.2760    12.5890 ca         1 A1H      -0.098000
      5 C5          15.0510   -26.4030    13.0410 ca         1 A1H      -0.089000
      6 C6          15.2170   -25.7880    14.2720 ca         1 A1H      -0.016900
      7 C7          16.3420   -26.0340    15.0460 ca         1 A1H      -0.089000
      8 C8          17.3100   -26.9080    14.5730 ca         1 A1H      -0.098000
      9 N1          18.8650   -29.2160    13.8610 n8         1 A1H      -1.002200
     10 BR1         13.8860   -24.6030    14.9050 br         1 A1H      -0.104100
     11 H1          20.0840   -28.2610    11.6530 hc         1 A1H       0.041700
     12 H2          18.8850   -27.0220    11.2840 hc         1 A1H       0.041700
     13 H3          19.8030   -26.9390    12.7930 hc         1 A1H       0.041700
     14 H4          17.7750   -29.0870    12.0320 h1         1 A1H       0.020700
     15 H5          15.8950   -27.7590    11.6290 ha         1 A1H       0.123500
     16 H6          14.1730   -26.2170    12.4380 ha         1 A1H       0.128500
     17 H7          16.4720   -25.5560    16.0080 ha         1 A1H       0.128500
     18 H8          18.1830   -27.1020    15.1820 ha         1 A1H       0.123500
     19 H9          18.1900   -29.8610    14.2550 hn         1 A1H       0.399000
     20 H10         19.6050   -29.7900    13.4750 hn         1 A1H       0.399000
@<TRIPOS>BOND
     1     1     2 1   
     2     1    11 1   
     3     1    12 1   
     4     1    13 1   
     5     2     3 1   
     6     2     9 1   
     7     2    14 1   
     8     3     4 ar  
     9     3     8 ar  
    10     4     5 ar  
    11     4    15 1   
    12     5     6 ar  
    13     5    16 1   
    14     6     7 ar  
    15     6    10 1   
    16     7     8 ar  
    17     7    17 1   
    18     8    18 1   
    19     9    19 1   
    20     9    20 1   
@<TRIPOS>SUBSTRUCTURE
     1 A1H         1 TEMP              0 ****  ****    0 ROOT
