@<TRIPOS>MOLECULE
A1H
   45    47     1     0     0
SMALL
No Charge or Current Charge


@<TRIPOS>ATOM
      1 N1          16.6250    64.5120    45.4800 na         1 A1H      -0.222700
      2 C4          15.1960    66.7250    40.6780 ca         1 A1H       0.140100
      3 C5          16.2530    67.5190    41.1690 ca         1 A1H      -0.134000
      4 C6          17.3790    67.7930    40.3670 ca         1 A1H      -0.239500
      5 C10         18.8880    66.7810    42.8270 ca         1 A1H       0.066100
      6 C13         17.4050    65.3650    44.7140 ca         1 A1H      -0.049200
      7 C15         18.3720    65.5090    42.4970 ca         1 A1H      -0.053000
      8 C17         16.9490    63.5780    43.4240 cc         1 A1H      -0.227200
      9 C1          17.4270    67.2820    39.0530 ca         1 A1H      -0.134000
     10 C11         18.6790    67.3260    44.1180 ca         1 A1H      -0.095000
     11 C12         17.9270    66.6140    45.0780 ca         1 A1H      -0.118000
     12 C14         17.6240    64.8380    43.4730 ca         1 A1H      -0.089800
     13 C16         16.3400    63.3960    44.6580 cd         1 A1H      -0.055300
     14 C18         15.5020    62.2360    45.1210 c3         1 A1H      -0.040900
     15 C2          16.3650    66.5050    38.5290 ca         1 A1H       0.140100
     16 C3          15.2320    66.2200    39.3550 ca         1 A1H       0.078100
     17 C9          14.0640    66.6930    42.8840 c3         1 A1H       0.142900
     18 O1          16.4330    66.0210    37.2320 os         1 A1H      -0.324600
     19 O2          14.1330    65.4550    38.9580 os         1 A1H      -0.334100
     20 O6          19.5760    67.4960    41.8780 os         1 A1H      -0.428800
     21 S1          18.7730    68.7590    41.0440 sy         1 A1H       1.275200
     22 H1          16.3180    64.6570    46.4360 hn         1 A1H       0.349000
     23 H2          16.2260    67.9090    42.1830 ha         1 A1H       0.145500
     24 H3          17.3700    65.7900    35.3790 h1         1 A1H       0.046367
     25 H4          17.6720    67.3450    36.1770 h1         1 A1H       0.046367
     26 H5          18.4730    65.8620    36.7670 h1         1 A1H       0.046367
     27 H6          13.0190    64.3020    37.6220 h1         1 A1H       0.038033
     28 H7          13.9630    65.6000    36.8710 h1         1 A1H       0.038033
     29 H8          14.7760    64.1220    37.4700 h1         1 A1H       0.038033
     30 H9          18.5220    65.0810    41.5100 ha         1 A1H       0.134000
     31 H10         16.9040    62.8860    42.5860 ha         1 A1H       0.212000
     32 H11         18.3050    67.4970    38.4490 ha         1 A1H       0.145500
     33 H12         19.0880    68.3020    44.3680 ha         1 A1H       0.140000
     34 H13         17.7510    67.0290    46.0680 ha         1 A1H       0.121000
     35 H14         15.9430    61.7590    46.0040 hc         1 A1H       0.051700
     36 H15         14.4890    62.5630    45.3840 hc         1 A1H       0.051700
     37 H16         15.4130    61.4730    44.3390 hc         1 A1H       0.051700
     38 H17         13.1350    66.3100    43.3230 h1         1 A1H       0.046367
     39 H18         14.9060    66.2160    43.4020 h1         1 A1H       0.046367
     40 H19         14.1030    67.7750    43.0670 h1         1 A1H       0.046367
     41 O3          14.1050    66.4070    41.4740 os         1 A1H      -0.324600
     42 C7          17.5430    66.2690    36.3500 c3         1 A1H       0.142900
     43 C8          13.9720    64.8430    37.6650 c3         1 A1H       0.151900
     44 O4          19.6600    69.1930    39.9540 o          1 A1H      -0.530500
     45 O5          18.2660    69.6970    42.0560 o          1 A1H      -0.530500
@<TRIPOS>BOND
     1     1     6 1   
     2     1    13 1   
     3     1    22 1   
     4     2     3 ar  
     5     2    16 ar  
     6     2    41 1   
     7     3     4 ar  
     8     3    23 1   
     9     4     9 ar  
    10     4    21 1   
    11     5     7 ar  
    12     5    10 ar  
    13     5    20 1   
    14     6    11 ar  
    15     6    12 ar  
    16     7    12 ar  
    17     7    30 1   
    18     8    12 1   
    19     8    13 2   
    20     8    31 1   
    21     9    15 ar  
    22     9    32 1   
    23    10    11 ar  
    24    10    33 1   
    25    11    34 1   
    26    13    14 1   
    27    14    35 1   
    28    14    36 1   
    29    14    37 1   
    30    15    16 ar  
    31    15    18 1   
    32    16    19 1   
    33    17    38 1   
    34    17    39 1   
    35    17    40 1   
    36    17    41 1   
    37    18    42 1   
    38    19    43 1   
    39    20    21 1   
    40    21    44 2   
    41    21    45 2   
    42    24    42 1   
    43    25    42 1   
    44    26    42 1   
    45    27    43 1   
    46    28    43 1   
    47    29    43 1   
@<TRIPOS>SUBSTRUCTURE
     1 A1H         1 TEMP              0 ****  ****    0 ROOT
