@<TRIPOS>MOLECULE
A1H
   18    18     1     0     0
SMALL
abcg2


@<TRIPOS>ATOM
      1 C5          -3.6000   -40.7330     5.6040 c5         1 A1H       0.096300
      2 C4          -3.8380   -39.8150     4.4100 c5         1 A1H       0.155000
      3 C3          -4.8980   -40.5470     3.6150 c5         1 A1H       0.109600
      4 C2          -5.0140   -41.2980     5.8210 c5         1 A1H       0.125300
      5 C1          -5.7930   -40.6180     6.9350 c3         1 A1H       0.147600
      6 O4          -2.6830   -41.7010     5.1750 oh         1 A1H      -0.701000
      7 O2          -5.7280   -41.1170     4.5990 os         1 A1H      -0.443000
      8 O1          -5.1650   -40.9480     8.1510 oh         1 A1H      -0.730000
      9 F1          -4.3170   -38.6150     4.8520 f          1 A1H      -0.101000
     10 F2          -2.7260   -39.5400     3.6930 f          1 A1H      -0.101000
     11 H1          -3.2390   -40.1810     6.4800 h1         1 A1H       0.088700
     12 H2          -5.4840   -39.8810     2.9780 h1         1 A1H       0.079200
     13 H3          -4.4240   -41.3060     2.9830 h1         1 A1H       0.079200
     14 H4          -4.9450   -42.3690     6.0510 h1         1 A1H       0.075700
     15 H5          -5.8190   -39.5350     6.7670 h1         1 A1H       0.041700
     16 H6          -6.8310   -40.9730     6.9000 h1         1 A1H       0.041700
     17 H7          -2.5800   -42.3570     5.8720 ho         1 A1H       0.521000
     18 H8          -5.5810   -40.4400     8.8530 ho         1 A1H       0.514000
@<TRIPOS>BOND
     1     1     2 1   
     2     1     4 1   
     3     1     6 1   
     4     1    11 1   
     5     2     3 1   
     6     2     9 1   
     7     2    10 1   
     8     3     7 1   
     9     3    12 1   
    10     3    13 1   
    11     4     5 1   
    12     4     7 1   
    13     4    14 1   
    14     5     8 1   
    15     5    15 1   
    16     5    16 1   
    17     6    17 1   
    18     8    18 1   
@<TRIPOS>SUBSTRUCTURE
     1 A1H         1 TEMP              0 ****  ****    0 ROOT
