@<TRIPOS>MOLECULE
A1H
   17    18     1     0     0
SMALL
abcg2


@<TRIPOS>ATOM
      1 C1          16.5140   -14.2860     1.9770 ca         1 A1H       0.283000
      2 C2          17.0300   -13.3100     2.8210 ca         1 A1H      -0.150000
      3 C3          16.3060   -12.9020     3.9460 ca         1 A1H      -0.032800
      4 C4          16.6570   -11.9170     4.9290 cc         1 A1H      -0.182200
      5 C5          15.7150   -11.7790     5.8880 cd         1 A1H      -0.149400
      6 C6          15.0590   -13.4870     4.2230 ca         1 A1H      -0.197000
      7 C7          14.5350   -14.4690     3.3870 ca         1 A1H      -0.041000
      8 C8          15.2580   -14.8570     2.2790 ca         1 A1H      -0.160000
      9 N1          17.1810   -14.6640     0.8270 nv         1 A1H      -1.067000
     10 S1          14.3550   -12.8230     5.6650 ss         1 A1H       0.045400
     11 H1          17.9940   -12.8610     2.6090 ha         1 A1H       0.115000
     12 H2          17.5740   -11.3450     4.9070 ha         1 A1H       0.202000
     13 H3          15.7360   -11.1070     6.7340 h4         1 A1H       0.214000
     14 H4          13.5760   -14.9270     3.5940 ha         1 A1H       0.119000
     15 H5          14.8540   -15.6200     1.6250 ha         1 A1H       0.112000
     16 H6          18.1750   -14.4970     0.8340 hn         1 A1H       0.444000
     17 H7          16.9710   -15.5910     0.4920 hn         1 A1H       0.444000
@<TRIPOS>BOND
     1     1     2 ar  
     2     1     8 ar  
     3     1     9 1   
     4     2     3 ar  
     5     2    11 1   
     6     3     4 1   
     7     3     6 ar  
     8     4     5 2   
     9     4    12 1   
    10     5    10 1   
    11     5    13 1   
    12     6     7 ar  
    13     6    10 1   
    14     7     8 ar  
    15     7    14 1   
    16     8    15 1   
    17     9    16 1   
    18     9    17 1   
@<TRIPOS>SUBSTRUCTURE
     1 A1H         1 TEMP              0 ****  ****    0 ROOT
