@<TRIPOS>MOLECULE
A1H
   53    56     1     0     0
SMALL
No Charge or Current Charge


@<TRIPOS>ATOM
      1 C1          18.4230    34.4960   129.2750 cc         1 A1H      -0.220600
      2 C2          18.1060    34.1290   130.5700 cd         1 A1H      -0.045000
      3 C3          18.6890    32.8560   130.7700 cd         1 A1H      -0.236000
      4 C12         19.6610    33.5880   127.4180 cc         1 A1H       0.462800
      5 C14         20.5120    32.4940   126.7090 c3         1 A1H       0.170700
      6 C17         16.8450    36.8990   125.8680 c          1 A1H       0.588100
      7 C20         20.6640    32.7330   125.1760 c3         1 A1H      -0.121100
      8 C21         21.9400    32.4250   127.3140 c3         1 A1H      -0.121100
      9 C23         15.2040    38.2700   124.5080 c6         1 A1H       0.110700
     10 C24         14.1790    38.8020   125.5540 c6         1 A1H       0.146800
     11 C26         12.9830    40.1170   123.8460 c6         1 A1H       0.162800
     12 C27         13.9680    39.6350   122.7540 c6         1 A1H      -0.072400
     13 C28         15.3510    39.2990   123.3610 c6         1 A1H      -0.088400
     14 C4          19.3410    32.4290   129.6800 cc         1 A1H      -0.068000
     15 N5          19.1520    33.4510   128.7390 na         1 A1H       0.047200
     16 C6          19.9830    31.1710   129.8160 cc         1 A1H      -0.087000
     17 C7          19.7770    30.6580   131.0830 cd         1 A1H      -0.009000
     18 S8          18.7810    31.7310   132.1240 ss         1 A1H       0.251000
     19 C9          18.0860    35.7150   128.5810 c          1 A1H       0.593600
     20 N10         18.6200    35.7190   127.2580 n          1 A1H      -0.133800
     21 N11         19.4530    34.7070   126.7170 n2         1 A1H      -0.470300
     22 O13         17.4260    36.6280   129.0640 o          1 A1H      -0.526000
     23 O15         19.9010    31.1940   126.7930 oh         1 A1H      -0.650000
     24 N18         16.5170    38.0130   125.1240 ns         1 A1H      -0.506900
     25 O19         16.0370    36.0010   126.0690 o          1 A1H      -0.579100
     26 Cl22        20.4020    29.1420   131.6490 cl         1 A1H      -0.144000
     27 N25         12.8540    39.1170   124.9410 n3         1 A1H      -0.710600
     28 H2          17.5360    34.7100   131.2910 ha         1 A1H       0.161000
     29 H16A        18.4490    37.8120   126.9680 h1         1 A1H       0.081700
     30 H16B        18.9590    36.9050   125.5380 h1         1 A1H       0.081700
     31 H20B        21.2370    31.9280   124.7010 hc         1 A1H       0.052700
     32 H20A        19.6820    32.7790   124.6870 hc         1 A1H       0.052700
     33 H20C        21.1910    33.6730   124.9680 hc         1 A1H       0.052700
     34 H21C        22.5010    31.5700   126.9180 hc         1 A1H       0.052700
     35 H21B        22.5000    33.3360   127.0690 hc         1 A1H       0.052700
     36 H21A        21.9250    32.3500   128.4050 hc         1 A1H       0.052700
     37 H23         14.8190    37.3270   124.0910 h1         1 A1H       0.092700
     38 H24A        14.5950    39.6990   126.0370 h1         1 A1H       0.041200
     39 H26B        12.0040    40.3020   123.3820 h1         1 A1H       0.031200
     40 H26A        13.3370    41.0780   124.2500 h1         1 A1H       0.031200
     41 H27B        13.5560    38.7490   122.2530 hc         1 A1H       0.050200
     42 H27A        14.0750    40.4100   121.9830 hc         1 A1H       0.050200
     43 H28B        16.0150    38.9020   122.5800 hc         1 A1H       0.041700
     44 H28A        15.8200    40.2190   123.7380 hc         1 A1H       0.041700
     45 H29B        10.8700    39.6780   125.4770 h1         1 A1H       0.032033
     46 H29A        11.7290    38.7290   126.7080 h1         1 A1H       0.032033
     47 H29C        12.1450    40.4410   126.4570 h1         1 A1H       0.032033
     48 H6          20.5640    30.6630   129.0600 ha         1 A1H       0.152000
     49 H15         20.4140    30.5920   126.2120 ho         1 A1H       0.453000
     50 H18         17.2440    38.7080   125.0000 hn         1 A1H       0.308500
     51 C16         18.2870    36.8850   126.4040 c3         1 A1H       0.031000
     52 H24B        14.0570    38.0430   126.3400 h1         1 A1H       0.041200
     53 C29         11.8470    39.5140   125.9490 c3         1 A1H       0.154100
@<TRIPOS>BOND
     1     1     2 2   
     2     1    15 1   
     3     1    19 1   
     4     2     3 1   
     5     2    28 1   
     6     3    14 2   
     7     3    18 1   
     8     4     5 1   
     9     4    15 1   
    10     4    21 2   
    11     5     7 1   
    12     5     8 1   
    13     5    23 1   
    14     6    24 1   
    15     6    25 2   
    16     6    51 1   
    17     7    31 1   
    18     7    32 1   
    19     7    33 1   
    20     8    34 1   
    21     8    35 1   
    22     8    36 1   
    23     9    10 1   
    24     9    13 1   
    25     9    24 1   
    26     9    37 1   
    27    10    27 1   
    28    10    38 1   
    29    10    52 1   
    30    11    12 1   
    31    11    27 1   
    32    11    39 1   
    33    11    40 1   
    34    12    13 1   
    35    12    41 1   
    36    12    42 1   
    37    13    43 1   
    38    13    44 1   
    39    14    15 1   
    40    14    16 1   
    41    16    17 2   
    42    16    48 1   
    43    17    18 1   
    44    17    26 1   
    45    19    20 1   
    46    19    22 2   
    47    20    21 1   
    48    20    51 1   
    49    23    49 1   
    50    24    50 1   
    51    27    53 1   
    52    29    51 1   
    53    30    51 1   
    54    45    53 1   
    55    46    53 1   
    56    47    53 1   
@<TRIPOS>SUBSTRUCTURE
     1 A1H         1 TEMP              0 ****  ****    0 ROOT
