@<TRIPOS>MOLECULE
A1H
   41    44     1     0     0
SMALL
No Charge or Current Charge


@<TRIPOS>ATOM
      1 C2         -15.2550    18.0960     3.6130 c          1 A1H       0.569000
      2 C4         -14.6510    16.3420     4.9730 c          1 A1H       0.617000
      3 C7         -14.5390    17.0290     2.7100 c5         1 A1H       0.040400
      4 C8         -13.2310    17.6360     2.1300 c3         1 A1H       0.101000
      5 C12        -10.5540    18.2070     4.7860 cc         1 A1H       0.146500
      6 C17         -9.5230    20.8290     6.7510 ca         1 A1H       0.041800
      7 C18         -8.2100    21.2850     6.9970 ca         1 A1H      -0.143000
      8 C19         -7.9980    22.5030     7.6610 ca         1 A1H       0.185000
      9 C21         -9.0860    23.2790     8.0880 ca         1 A1H      -0.148000
     10 C23        -10.6140    21.6150     7.1830 ca         1 A1H      -0.119000
     11 C24        -15.4740    16.5500     1.5540 cx         1 A1H      -0.138700
     12 O1         -15.7500    19.1790     3.3370 o          1 A1H      -0.509000
     13 N3         -15.2270    17.5380     4.8410 ns         1 A1H      -0.482500
     14 O5         -14.5070    15.7100     6.0010 o          1 A1H      -0.536000
     15 N6         -14.2540    15.9740     3.7260 ns         1 A1H      -0.512900
     16 N9         -12.2890    18.1650     3.1290 ns         1 A1H      -0.498900
     17 C10        -11.3170    17.4260     3.7750 c          1 A1H       0.547600
     18 O11        -11.1230    16.2430     3.5190 o          1 A1H      -0.595100
     19 C13         -9.5320    17.6220     5.5370 cc         1 A1H       0.266900
     20 N14         -8.9900    18.4780     6.3720 nd         1 A1H      -0.494800
     21 N15         -9.7400    19.6130     6.0880 na         1 A1H       0.359800
     22 N16        -10.7180    19.4770     5.1090 nd         1 A1H      -0.486800
     23 F20         -6.7380    22.9310     7.8910 f          1 A1H      -0.169000
     24 C22        -10.3980    22.8350     7.8480 ca         1 A1H      -0.074000
     25 C25        -16.5140    15.5050     1.9120 cx         1 A1H      -0.116900
     26 C26        -15.2960    15.1140     1.0990 cx         1 A1H      -0.116900
     27 H1         -12.7210    16.8690     1.5310 h1         1 A1H       0.078700
     28 H2         -13.4970    18.4530     1.4450 h1         1 A1H       0.078700
     29 H3          -7.3530    20.6990     6.6730 ha         1 A1H       0.163000
     30 H4          -8.9110    24.2210     8.6020 ha         1 A1H       0.140000
     31 H5         -11.6330    21.2780     7.0040 ha         1 A1H       0.144000
     32 H6         -15.7570    17.2790     0.7960 hc         1 A1H       0.097700
     33 H7         -15.6150    18.0150     5.6390 hn         1 A1H       0.355500
     34 H8         -13.6970    15.1370     3.6050 hn         1 A1H       0.361500
     35 H9         -12.3530    19.1420     3.4000 hn         1 A1H       0.340500
     36 H10         -9.1710    16.6030     5.4980 h4         1 A1H       0.074100
     37 H11        -11.2450    23.4340     8.1780 ha         1 A1H       0.126000
     38 H12        -17.4690    15.5500     1.3930 hc         1 A1H       0.078200
     39 H13        -16.5820    15.1420     2.9340 hc         1 A1H       0.078200
     40 H14        -15.4440    14.9000     0.0430 hc         1 A1H       0.078200
     41 H15        -14.5410    14.4930     1.5760 hc         1 A1H       0.078200
@<TRIPOS>BOND
     1     1     3 1   
     2     1    12 2   
     3     1    13 1   
     4     2    13 1   
     5     2    14 2   
     6     2    15 1   
     7     3     4 1   
     8     3    11 1   
     9     3    15 1   
    10     4    16 1   
    11     4    27 1   
    12     4    28 1   
    13     5    17 1   
    14     5    19 1   
    15     5    22 2   
    16     6     7 ar  
    17     6    10 ar  
    18     6    21 1   
    19     7     8 ar  
    20     7    29 1   
    21     8     9 ar  
    22     8    23 1   
    23     9    24 ar  
    24     9    30 1   
    25    10    24 ar  
    26    10    31 1   
    27    11    25 1   
    28    11    26 1   
    29    11    32 1   
    30    13    33 1   
    31    15    34 1   
    32    16    17 1   
    33    16    35 1   
    34    17    18 2   
    35    19    20 2   
    36    19    36 1   
    37    20    21 1   
    38    21    22 1   
    39    24    37 1   
    40    25    26 1   
    41    25    38 1   
    42    25    39 1   
    43    26    40 1   
    44    26    41 1   
@<TRIPOS>SUBSTRUCTURE
     1 A1H         1 TEMP              0 ****  ****    0 ROOT
