@<TRIPOS>MOLECULE
A1H
   18    18     1     0     0
SMALL
No Charge or Current Charge


@<TRIPOS>ATOM
      1 C5          -3.4510   -40.9010     5.6030 c5         1 A1H       0.096300
      2 C4          -3.7500   -39.8480     4.4720 c5         1 A1H       0.155000
      3 C3          -5.0460   -40.3890     3.7820 c5         1 A1H       0.109600
      4 C2          -4.8850   -41.4840     5.8430 c5         1 A1H       0.125300
      5 C1          -5.8290   -40.6160     6.7330 c3         1 A1H       0.147600
      6 O4          -2.5100   -41.9190     5.1950 oh         1 A1H      -0.701000
      7 O2          -5.4130   -41.5920     4.5010 os         1 A1H      -0.443000
      8 O1          -5.3110   -40.5020     8.0710 oh         1 A1H      -0.730000
      9 F1          -3.9700   -38.5800     5.0130 f          1 A1H      -0.101000
     10 F2          -2.6990   -39.7330     3.5590 f          1 A1H      -0.101000
     11 H1          -3.0860   -40.3940     6.5090 h1         1 A1H       0.088700
     12 H2          -5.8690   -39.6640     3.8450 h1         1 A1H       0.079200
     13 H3          -4.8850   -40.6350     2.7240 h1         1 A1H       0.079200
     14 H4          -4.8420   -42.4880     6.2860 h1         1 A1H       0.075700
     15 H5          -5.9560   -39.6200     6.2890 h1         1 A1H       0.041700
     16 H6          -6.8180   -41.0940     6.7510 h1         1 A1H       0.041700
     17 H7          -2.3720   -42.5220     5.9640 ho         1 A1H       0.521000
     18 H8          -5.9720   -39.9920     8.5980 ho         1 A1H       0.514000
@<TRIPOS>BOND
     1     1     2 1   
     2     1     4 1   
     3     1     6 1   
     4     1    11 1   
     5     2     3 1   
     6     2     9 1   
     7     2    10 1   
     8     3     7 1   
     9     3    12 1   
    10     3    13 1   
    11     4     5 1   
    12     4     7 1   
    13     4    14 1   
    14     5     8 1   
    15     5    15 1   
    16     5    16 1   
    17     6    17 1   
    18     8    18 1   
@<TRIPOS>SUBSTRUCTURE
     1 A1H         1 TEMP              0 ****  ****    0 ROOT
