@<TRIPOS>MOLECULE
A1H
   16    17     1     0     0
SMALL
No Charge or Current Charge


@<TRIPOS>ATOM
      1 C1          17.0130   -10.7250     7.1140 cc         1 A1H       0.652100
      2 C2          15.4620   -11.9700     6.2340 ca         1 A1H       0.157400
      3 C3          14.1910   -12.5210     6.0050 ca         1 A1H      -0.080000
      4 C4          14.0320   -13.5120     5.0150 ca         1 A1H      -0.074000
      5 C5          15.1450   -13.9440     4.2630 ca         1 A1H      -0.031900
      6 C6          16.4170   -13.3890     4.4970 ca         1 A1H      -0.032000
      7 C7          16.5440   -12.4040     5.4880 ca         1 A1H      -0.197000
      8 N1          17.4910    -9.7890     7.9490 nv         1 A1H      -1.021200
      9 N2          15.7180   -10.9890     7.1860 nd         1 A1H      -0.635100
     10 S1          18.0310   -11.5850     5.9390 ss         1 A1H      -0.032200
     11 Br1         14.9240   -15.2890     2.9220 br         1 A1H      -0.098100
     12 H1          13.3370   -12.1840     6.5870 ha         1 A1H       0.134000
     13 H2          13.0510   -13.9430     4.8320 ha         1 A1H       0.131000
     14 H3          17.2810   -13.7170     3.9210 ha         1 A1H       0.137000
     15 H4          18.3640    -9.3450     7.6900 hn         1 A1H       0.494500
     16 H5          16.7940    -9.1940     8.3810 hn         1 A1H       0.494500
@<TRIPOS>BOND
     1     1     8 1   
     2     1     9 2   
     3     1    10 1   
     4     2     3 ar  
     5     2     7 ar  
     6     2     9 1   
     7     3     4 ar  
     8     3    12 1   
     9     4     5 ar  
    10     4    13 1   
    11     5     6 ar  
    12     5    11 1   
    13     6     7 ar  
    14     6    14 1   
    15     7    10 1   
    16     8    15 1   
    17     8    16 1   
@<TRIPOS>SUBSTRUCTURE
     1 A1H         1 TEMP              0 ****  ****    0 ROOT
