@<TRIPOS>MOLECULE
A1H
   53    56     1     0     0
SMALL
abcg2


@<TRIPOS>ATOM
      1 C1          18.4380    34.5780   129.2280 cc         1 A1H      -0.220600
      2 C2          18.0810    34.2480   130.5070 cd         1 A1H      -0.045000
      3 C3          18.5940    32.9590   130.7070 cd         1 A1H      -0.236000
      4 C12         19.5920    33.7040   127.3200 cc         1 A1H       0.462800
      5 C14         20.4030    32.6300   126.6230 c3         1 A1H       0.170700
      6 C17         17.0040    36.8780   125.8460 c          1 A1H       0.588100
      7 C20         20.5540    32.9290   125.1340 c3         1 A1H      -0.121100
      8 C21         21.7960    32.5500   127.2590 c3         1 A1H      -0.121100
      9 C23         15.3040    38.2040   124.6510 c6         1 A1H       0.110700
     10 C24         14.2800    38.7460   125.6470 c6         1 A1H       0.146800
     11 C26         13.0770    39.8800   123.9120 c6         1 A1H       0.162800
     12 C27         14.0510    39.3900   122.8530 c6         1 A1H      -0.072400
     13 C28         15.4270    39.1350   123.4530 c6         1 A1H      -0.088400
     14 C4          19.2430    32.5230   129.5560 cc         1 A1H      -0.068000
     15 N5          19.1480    33.5370   128.6300 na         1 A1H       0.047200
     16 C6          19.8030    31.2190   129.6820 cc         1 A1H      -0.087000
     17 C7          19.5530    30.7320   130.9220 cd         1 A1H      -0.009000
     18 S8          18.6490    31.7880   131.9640 ss         1 A1H       0.251000
     19 C9          18.1610    35.7920   128.4970 c          1 A1H       0.593600
     20 N10         18.7020    35.8100   127.2440 n          1 A1H      -0.133800
     21 N11         19.3580    34.7800   126.6810 n2         1 A1H      -0.470300
     22 O13         17.5210    36.7270   128.9480 o          1 A1H      -0.526000
     23 O15         19.6540    31.4450   126.7990 oh         1 A1H      -0.650000
     24 N18         16.5940    38.0240   125.2850 ns         1 A1H      -0.506900
     25 O19         16.3380    35.8590   125.9070 o          1 A1H      -0.579100
     26 CL22        20.0320    29.2030   131.5060 cl         1 A1H      -0.144000
     27 N25         12.9910    38.9400   125.0150 n3         1 A1H      -0.710600
     28 H2          17.5260    34.8650   131.1940 ha         1 A1H       0.161000
     29 H16A        18.6220    37.8660   126.9050 h1         1 A1H       0.081700
     30 H16B        19.1320    36.8770   125.5450 h1         1 A1H       0.081700
     31 H20B        21.1080    32.1080   124.6740 hc         1 A1H       0.052700
     32 H20A        19.5870    33.0080   124.6390 hc         1 A1H       0.052700
     33 H20C        21.1110    33.8450   124.9510 hc         1 A1H       0.052700
     34 H21C        22.3600    31.7320   126.8080 hc         1 A1H       0.052700
     35 H21B        22.3470    33.4730   127.0770 hc         1 A1H       0.052700
     36 H21A        21.7710    32.3850   128.3350 hc         1 A1H       0.052700
     37 H23         14.9630    37.2250   124.3040 h1         1 A1H       0.092700
     38 H24A        14.6700    39.6840   126.0840 h1         1 A1H       0.041200
     39 H26B        12.0820    39.9960   123.4760 h1         1 A1H       0.031200
     40 H26A        13.3890    40.8810   124.2620 h1         1 A1H       0.031200
     41 H27B        13.6670    38.4690   122.4060 hc         1 A1H       0.050200
     42 H27A        14.1200    40.1280   122.0510 hc         1 A1H       0.050200
     43 H28B        16.1030    38.7060   122.7100 hc         1 A1H       0.041700
     44 H28A        15.8660    40.0860   123.7760 hc         1 A1H       0.041700
     45 H29B        11.0210    39.4380   125.4970 h1         1 A1H       0.032033
     46 H29A        11.9100    38.6030   126.7710 h1         1 A1H       0.032033
     47 H29C        12.2240    40.3160   126.4530 h1         1 A1H       0.032033
     48 H6          20.3390    30.6650   128.9320 ha         1 A1H       0.152000
     49 H15         20.1550    30.7070   126.4330 ho         1 A1H       0.453000
     50 H18         17.1960    38.8320   125.3410 hn         1 A1H       0.308500
     51 C16         18.4340    36.9290   126.3800 c3         1 A1H       0.031000
     52 H24B        14.1680    38.0350   126.4690 h1         1 A1H       0.041200
     53 C29         11.9950    39.3490   125.9790 c3         1 A1H       0.154100
@<TRIPOS>BOND
     1     1     2 2   
     2     1    15 1   
     3     1    19 1   
     4     2     3 1   
     5     2    28 1   
     6     3    14 2   
     7     3    18 1   
     8     4     5 1   
     9     4    15 1   
    10     4    21 2   
    11     5     7 1   
    12     5     8 1   
    13     5    23 1   
    14     6    24 1   
    15     6    25 2   
    16     6    51 1   
    17     7    31 1   
    18     7    32 1   
    19     7    33 1   
    20     8    34 1   
    21     8    35 1   
    22     8    36 1   
    23     9    10 1   
    24     9    13 1   
    25     9    24 1   
    26     9    37 1   
    27    10    27 1   
    28    10    38 1   
    29    10    52 1   
    30    11    12 1   
    31    11    27 1   
    32    11    39 1   
    33    11    40 1   
    34    12    13 1   
    35    12    41 1   
    36    12    42 1   
    37    13    43 1   
    38    13    44 1   
    39    14    15 1   
    40    14    16 1   
    41    16    17 2   
    42    16    48 1   
    43    17    18 1   
    44    17    26 1   
    45    19    20 1   
    46    19    22 2   
    47    20    21 1   
    48    20    51 1   
    49    23    49 1   
    50    24    50 1   
    51    27    53 1   
    52    29    51 1   
    53    30    51 1   
    54    45    53 1   
    55    46    53 1   
    56    47    53 1   
@<TRIPOS>SUBSTRUCTURE
     1 A1H         1 TEMP              0 ****  ****    0 ROOT
