@<TRIPOS>MOLECULE
A1H
   16    17     1     0     0
SMALL
No Charge or Current Charge


@<TRIPOS>ATOM
      1 C1          16.8400   -10.6370     6.8360 cc         1 A1H       0.656100
      2 C2          15.3620   -12.0420     6.0830 ca         1 A1H       0.161400
      3 C3          14.1440   -12.7320     5.9640 ca         1 A1H      -0.083000
      4 C4          14.0040   -13.7260     4.9730 ca         1 A1H      -0.070000
      5 C5          15.0790   -14.0240     4.1110 ca         1 A1H       0.182000
      6 C6          16.2970   -13.3300     4.2350 ca         1 A1H      -0.027000
      7 C7          16.4100   -12.3440     5.2300 ca         1 A1H      -0.199000
      8 I1          14.8540   -15.5530     2.5930 i          1 A1H      -0.313000
      9 N1          17.2870    -9.6610     7.6410 nv         1 A1H      -1.024200
     10 N2          15.5970   -11.0470     7.0250 nd         1 A1H      -0.638100
     11 S1          17.8310   -11.3650     5.5530 ss         1 A1H      -0.034200
     12 H3          13.3180   -12.4990     6.6310 ha         1 A1H       0.134000
     13 H4          13.0660   -14.2660     4.8720 ha         1 A1H       0.129000
     14 H5          17.1290   -13.5550     3.5720 ha         1 A1H       0.135000
     15 H1          18.0750    -9.1160     7.3080 hn         1 A1H       0.497000
     16 H2          16.5720    -9.1530     8.1470 hn         1 A1H       0.497000
@<TRIPOS>BOND
     1     1     9 1   
     2     1    10 2   
     3     1    11 1   
     4     2     3 ar  
     5     2     7 ar  
     6     2    10 1   
     7     3     4 ar  
     8     3    12 1   
     9     4     5 ar  
    10     4    13 1   
    11     5     6 ar  
    12     5     8 1   
    13     6     7 ar  
    14     6    14 1   
    15     7    11 1   
    16     9    15 1   
    17     9    16 1   
@<TRIPOS>SUBSTRUCTURE
     1 A1H         1 TEMP              0 ****  ****    0 ROOT
