@<TRIPOS>MOLECULE
A1H
   20    21     1     0     0
SMALL
abcg2


@<TRIPOS>ATOM
      1 C1          18.2770   -12.8270     0.6580 c          1 A1H       0.726000
      2 C10         14.4890   -13.3510     5.3060 ca         1 A1H      -0.094000
      3 C2          18.2860   -13.5910     2.0150 c3         1 A1H      -0.178200
      4 C3          16.9520   -13.8960     2.6130 cc         1 A1H       0.009600
      5 C4          16.0670   -14.7790     2.0950 cd         1 A1H      -0.148400
      6 C5          15.1660   -13.7890     4.1710 ca         1 A1H      -0.152000
      7 C6          16.4440   -13.3090     3.8300 ca         1 A1H      -0.052800
      8 C7          17.0400   -12.3570     4.6680 ca         1 A1H      -0.060000
      9 C8          16.3740   -11.9200     5.7950 ca         1 A1H      -0.139000
     10 C9          15.1030   -12.4140     6.1150 ca         1 A1H      -0.124000
     11 O1          17.1830   -12.4780     0.1860 o          1 A1H      -0.723500
     12 O2          19.4090   -12.6330     0.1730 o          1 A1H      -0.723500
     13 S1          14.6080   -14.9480     3.0120 ss         1 A1H      -0.038600
     14 H2          18.8480   -14.5180     1.8770 hc         1 A1H       0.032700
     15 H3          18.8830   -13.0010     2.7150 hc         1 A1H       0.032700
     16 H5          16.1870   -15.3630     1.1940 h4         1 A1H       0.217000
     17 H7          18.0220   -11.9640     4.4360 ha         1 A1H       0.122000
     18 H8          16.8380   -11.1860     6.4410 ha         1 A1H       0.097000
     19 H9          14.5960   -12.0600     7.0030 ha         1 A1H       0.092000
     20 H1          13.5060   -13.7330     5.5500 ha         1 A1H       0.103000
@<TRIPOS>BOND
     1     1     3 1   
     2     1    11 1   
     3     1    12 1   
     4     2     6 ar  
     5     2    10 ar  
     6     2    20 1   
     7     3     4 1   
     8     3    14 1   
     9     3    15 1   
    10     4     5 2   
    11     4     7 1   
    12     5    13 1   
    13     5    16 1   
    14     6     7 ar  
    15     6    13 1   
    16     7     8 ar  
    17     8     9 ar  
    18     8    17 1   
    19     9    10 ar  
    20     9    18 1   
    21    10    19 1   
@<TRIPOS>SUBSTRUCTURE
     1 A1H         1 TEMP              0 ****  ****    0 ROOT
