@<TRIPOS>MOLECULE
A1H
   45    47     1     0     0
SMALL
abcg2


@<TRIPOS>ATOM
      1 N1          16.7890    64.3560    45.3120 na         1 A1H      -0.222700
      2 C4          15.1690    66.7120    40.5680 ca         1 A1H       0.140100
      3 C5          16.1120    67.6190    41.0440 ca         1 A1H      -0.134000
      4 C6          17.2860    67.7780    40.3270 ca         1 A1H      -0.239500
      5 C10         18.7770    66.8560    42.7820 ca         1 A1H       0.066100
      6 C13         17.4650    65.3160    44.6170 ca         1 A1H      -0.049200
      7 C15         18.3840    65.5930    42.3920 ca         1 A1H      -0.053000
      8 C17         17.1490    63.4880    43.2910 cc         1 A1H      -0.227200
      9 C1          17.5640    67.0890    39.1570 ca         1 A1H      -0.134000
     10 C11         18.5450    67.3600    44.0670 ca         1 A1H      -0.095000
     11 C12         17.8840    66.5850    45.0020 ca         1 A1H      -0.118000
     12 C14         17.7130    64.7990    43.3240 ca         1 A1H      -0.089800
     13 C16         16.5930    63.2560    44.5200 cd         1 A1H      -0.055300
     14 C18         15.8680    62.0620    45.0270 c3         1 A1H      -0.040900
     15 C2          16.6100    66.1940    38.6810 ca         1 A1H       0.140100
     16 C3          15.4220    65.9910    39.3960 ca         1 A1H       0.078100
     17 C9          13.7320    67.0660    42.4150 c3         1 A1H       0.142900
     18 O1          16.7430    65.4680    37.5660 os         1 A1H      -0.324600
     19 O2          14.5280    65.0730    38.9680 os         1 A1H      -0.334100
     20 O6          19.4360    67.6550    41.8480 os         1 A1H      -0.428800
     21 S1          18.5620    68.7630    41.0370 sy         1 A1H       1.275200
     22 H1          16.4740    64.4420    46.2650 hn         1 A1H       0.349000
     23 H2          15.9460    68.1740    41.9560 ha         1 A1H       0.145500
     24 H3          17.8360    64.9070    35.9730 h1         1 A1H       0.046367
     25 H4          18.0910    66.5960    36.4440 h1         1 A1H       0.046367
     26 H5          18.8130    65.2810    37.4040 h1         1 A1H       0.046367
     27 H6          12.8940    64.7280    37.8180 h1         1 A1H       0.038033
     28 H7          12.9470    66.3600    38.5080 h1         1 A1H       0.038033
     29 H8          13.9980    65.9370    37.1390 h1         1 A1H       0.038033
     30 H9          18.5820    65.2360    41.3890 ha         1 A1H       0.134000
     31 H10         17.1470    62.8000    42.4610 ha         1 A1H       0.212000
     32 H11         18.4980    67.2440    38.6350 ha         1 A1H       0.145500
     33 H12         18.8900    68.3510    44.3280 ha         1 A1H       0.140000
     34 H13         17.7000    66.9640    45.9980 ha         1 A1H       0.121000
     35 H14         16.3570    61.6410    45.9060 hc         1 A1H       0.051700
     36 H15         14.8440    62.3100    45.3120 hc         1 A1H       0.051700
     37 H16         15.8260    61.2910    44.2610 hc         1 A1H       0.051700
     38 H17         12.7670    66.6860    42.7410 h1         1 A1H       0.046367
     39 H18         14.4840    66.8140    43.1670 h1         1 A1H       0.046367
     40 H19         13.6690    68.1530    42.3230 h1         1 A1H       0.046367
     41 O3          14.0050    66.4460    41.1730 os         1 A1H      -0.324600
     42 C7          17.9400    65.5810    36.8190 c3         1 A1H       0.142900
     43 C8          13.5460    65.5640    38.0600 c3         1 A1H       0.151900
     44 O4          19.4860    69.2330    40.0310 o          1 A1H      -0.530500
     45 O5          17.9920    69.6940    41.9870 o          1 A1H      -0.530500
@<TRIPOS>BOND
     1     1     6 1   
     2     1    13 1   
     3     1    22 1   
     4     2     3 ar  
     5     2    16 ar  
     6     2    41 1   
     7     3     4 ar  
     8     3    23 1   
     9     4     9 ar  
    10     4    21 1   
    11     5     7 ar  
    12     5    10 ar  
    13     5    20 1   
    14     6    11 ar  
    15     6    12 ar  
    16     7    12 ar  
    17     7    30 1   
    18     8    12 1   
    19     8    13 2   
    20     8    31 1   
    21     9    15 ar  
    22     9    32 1   
    23    10    11 ar  
    24    10    33 1   
    25    11    34 1   
    26    13    14 1   
    27    14    35 1   
    28    14    36 1   
    29    14    37 1   
    30    15    16 ar  
    31    15    18 1   
    32    16    19 1   
    33    17    38 1   
    34    17    39 1   
    35    17    40 1   
    36    17    41 1   
    37    18    42 1   
    38    19    43 1   
    39    20    21 1   
    40    21    44 2   
    41    21    45 2   
    42    24    42 1   
    43    25    42 1   
    44    26    42 1   
    45    27    43 1   
    46    28    43 1   
    47    29    43 1   
@<TRIPOS>SUBSTRUCTURE
     1 A1H         1 TEMP              0 ****  ****    0 ROOT
