@<TRIPOS>MOLECULE
A1H
   16    17     1     0     0
SMALL
abcg2


@<TRIPOS>ATOM
      1 C1          16.7670   -10.5860     6.8370 cc         1 A1H       0.656100
      2 C2          15.3220   -12.0440     6.0620 ca         1 A1H       0.161400
      3 C3          14.1300   -12.7550     5.9340 ca         1 A1H      -0.083000
      4 C4          14.0170   -13.7410     4.9680 ca         1 A1H      -0.070000
      5 C5          15.0920   -14.0220     4.1270 ca         1 A1H       0.182000
      6 C6          16.2930   -13.3360     4.2230 ca         1 A1H      -0.027000
      7 C7          16.3850   -12.3540     5.1960 ca         1 A1H      -0.199000
      8 I1          14.8890   -15.5260     2.6700 i          1 A1H      -0.313000
      9 N1          17.3040    -9.6340     7.6090 nv         1 A1H      -1.024200
     10 N2          15.5650   -11.0480     6.9700 nd         1 A1H      -0.638100
     11 S1          17.7410   -11.3310     5.5660 ss         1 A1H      -0.034200
     12 H3          13.2970   -12.5350     6.5890 ha         1 A1H       0.134000
     13 H4          13.0880   -14.2870     4.8780 ha         1 A1H       0.129000
     14 H5          17.1270   -13.5530     3.5690 ha         1 A1H       0.135000
     15 H1          18.1570    -9.1710     7.3470 hn         1 A1H       0.497000
     16 H2          16.6920    -9.1280     8.2290 hn         1 A1H       0.497000
@<TRIPOS>BOND
     1     1     9 1   
     2     1    10 2   
     3     1    11 1   
     4     2     3 ar  
     5     2     7 ar  
     6     2    10 1   
     7     3     4 ar  
     8     3    12 1   
     9     4     5 ar  
    10     4    13 1   
    11     5     6 ar  
    12     5     8 1   
    13     6     7 ar  
    14     6    14 1   
    15     7    11 1   
    16     9    15 1   
    17     9    16 1   
@<TRIPOS>SUBSTRUCTURE
     1 A1H         1 TEMP              0 ****  ****    0 ROOT
