@<TRIPOS>MOLECULE
A1H
   45    47     1     0     0
SMALL
abcg2


@<TRIPOS>ATOM
      1 N1          17.0940    64.7280    45.7640 na         1 A1H      -0.216700
      2 C4          17.2430    67.3180    38.9590 ca         1 A1H      -0.130000
      3 C5          16.9510    67.9040    40.1790 ca         1 A1H      -0.240500
      4 C6          15.7680    67.6970    40.8670 ca         1 A1H      -0.130000
      5 C7          13.3220    67.1020    42.1110 c3         1 A1H       0.143400
      6 C8          13.2580    65.9760    37.6390 c3         1 A1H       0.150900
      7 C10         18.5810    67.0560    42.7530 ca         1 A1H       0.022100
      8 C13         17.6200    65.6400    44.8990 ca         1 A1H      -0.026200
      9 C15         18.0700    65.7920    42.5470 ca         1 A1H       0.227000
     10 C17         17.0030    63.7570    43.7590 cc         1 A1H      -0.211200
     11 C1          14.8220    66.8490    40.2950 ca         1 A1H       0.141600
     12 C11         18.6170    67.6140    44.0380 ca         1 A1H      -0.064000
     13 C12         18.1390    66.9140    45.1260 ca         1 A1H      -0.132000
     14 C14         17.5760    65.0550    43.6150 ca         1 A1H      -0.138800
     15 C16         16.7230    63.5960    45.0880 cd         1 A1H      -0.059300
     16 C18         16.1220    62.4370    45.7950 c3         1 A1H      -0.040900
     17 C2          15.0890    66.2300    39.0700 ca         1 A1H       0.081100
     18 C3          16.2940    66.4710    38.3980 ca         1 A1H       0.141600
     19 C9          17.6420    66.0350    36.5010 c3         1 A1H       0.143400
     20 F1          18.0610    65.2620    41.3210 f          1 A1H      -0.153000
     21 O1          13.6350    66.5600    40.8410 os         1 A1H      -0.324600
     22 O2          14.1840    65.3770    38.5430 os         1 A1H      -0.333100
     23 O3          16.4470    65.8330    37.2320 os         1 A1H      -0.324600
     24 O4          19.1060    69.4120    39.9520 o          1 A1H      -0.530500
     25 O5          17.6190    69.7240    41.9530 o          1 A1H      -0.530500
     26 O6          19.1190    67.7400    41.6790 os         1 A1H      -0.412800
     27 S1          18.2030    68.8740    40.9410 sy         1 A1H       1.276200
     28 H14         16.9980    64.8650    46.7580 hn         1 A1H       0.352000
     29 H1          18.1840    67.5170    38.4650 ha         1 A1H       0.145000
     30 H2          15.5880    68.1840    41.8150 ha         1 A1H       0.145000
     31 H5          12.3400    66.7180    42.3740 h1         1 A1H       0.045867
     32 H3          14.0400    66.7880    42.8740 h1         1 A1H       0.045867
     33 H4          13.2800    68.1940    42.0890 h1         1 A1H       0.045867
     34 H7          12.5850    65.1890    37.3080 h1         1 A1H       0.037367
     35 H8          12.6720    66.7600    38.1240 h1         1 A1H       0.037367
     36 H6          13.7620    66.3990    36.7670 h1         1 A1H       0.037367
     37 H15         16.8190    63.0310    42.9840 ha         1 A1H       0.218000
     38 H12         19.0430    68.5990    44.1710 ha         1 A1H       0.141000
     39 H13         18.1730    67.3420    46.1180 ha         1 A1H       0.126000
     40 H18         16.8000    62.0350    46.5500 hc         1 A1H       0.052700
     41 H16         15.1970    62.7150    46.3030 hc         1 A1H       0.052700
     42 H17         15.8940    61.6420    45.0880 hc         1 A1H       0.052700
     43 H11         17.5550    65.4350    35.6000 h1         1 A1H       0.045867
     44 H9          17.7720    67.0820    36.2170 h1         1 A1H       0.045867
     45 H10         18.5210    65.7060    37.0620 h1         1 A1H       0.045867
@<TRIPOS>BOND
     1     1     8 1   
     2     1    15 1   
     3     1    28 1   
     4     2     3 ar  
     5     2    18 ar  
     6     2    29 1   
     7     3     4 ar  
     8     3    27 1   
     9     4    11 ar  
    10     4    30 1   
    11     5    21 1   
    12     5    31 1   
    13     5    32 1   
    14     5    33 1   
    15     6    22 1   
    16     6    34 1   
    17     6    35 1   
    18     6    36 1   
    19     7     9 ar  
    20     7    12 ar  
    21     7    26 1   
    22     8    13 ar  
    23     8    14 ar  
    24     9    14 ar  
    25     9    20 1   
    26    10    14 1   
    27    10    15 2   
    28    10    37 1   
    29    11    17 ar  
    30    11    21 1   
    31    12    13 ar  
    32    12    38 1   
    33    13    39 1   
    34    15    16 1   
    35    16    40 1   
    36    16    41 1   
    37    16    42 1   
    38    17    18 ar  
    39    17    22 1   
    40    18    23 1   
    41    19    23 1   
    42    19    43 1   
    43    19    44 1   
    44    19    45 1   
    45    24    27 2   
    46    25    27 2   
    47    26    27 1   
@<TRIPOS>SUBSTRUCTURE
     1 A1H         1 TEMP              0 ****  ****    0 ROOT
