@<TRIPOS>MOLECULE
A1H
   20    20     1     0     0
SMALL
No Charge or Current Charge


@<TRIPOS>ATOM
      1 C1          19.7520   -27.5920    12.2610 c3         1 A1H      -0.089100
      2 C2          18.5400   -28.4050    12.7570 c3         1 A1H       0.210800
      3 C3          17.4110   -27.5130    13.2760 ca         1 A1H      -0.070300
      4 C4          17.6140   -26.6550    14.3790 ca         1 A1H      -0.100000
      5 C5          16.5690   -25.8350    14.8440 ca         1 A1H      -0.084500
      6 C6          15.3170   -25.8690    14.2130 ca         1 A1H       0.198000
      7 C7          15.1040   -26.7210    13.1180 ca         1 A1H      -0.084500
      8 C8          16.1470   -27.5410    12.6500 ca         1 A1H      -0.100000
      9 I1          13.7090   -24.6080    14.9310 i          1 A1H      -0.320000
     10 N1          18.9580   -29.3720    13.7830 n8         1 A1H      -1.002200
     11 H1          20.5130   -28.2530    11.8290 hc         1 A1H       0.042033
     12 H2          19.4410   -26.8840    11.4840 hc         1 A1H       0.042033
     13 H3          20.2130   -27.0240    13.0780 hc         1 A1H       0.042033
     14 H4          18.1610   -28.9870    11.9060 h1         1 A1H       0.020700
     15 H5          18.5800   -26.6260    14.8780 ha         1 A1H       0.123500
     16 H6          16.7290   -25.1770    15.6940 ha         1 A1H       0.126500
     17 H7          14.1320   -26.7440    12.6320 ha         1 A1H       0.126500
     18 H8          15.9710   -28.1960    11.8000 ha         1 A1H       0.123500
     19 H9          18.1540   -29.9650    14.0180 hn         1 A1H       0.399500
     20 H10         19.6270   -30.0280    13.3650 hn         1 A1H       0.399500
@<TRIPOS>BOND
     1     1     2 1   
     2     1    11 1   
     3     1    12 1   
     4     1    13 1   
     5     2     3 1   
     6     2    10 1   
     7     2    14 1   
     8     3     4 ar  
     9     3     8 ar  
    10     4     5 ar  
    11     4    15 1   
    12     5     6 ar  
    13     5    16 1   
    14     6     7 ar  
    15     6     9 1   
    16     7     8 ar  
    17     7    17 1   
    18     8    18 1   
    19    10    19 1   
    20    10    20 1   
@<TRIPOS>SUBSTRUCTURE
     1 A1H         1 TEMP              0 ****  ****    0 ROOT
