@<TRIPOS>MOLECULE
A1H
   20    21     1     0     0
SMALL
No Charge or Current Charge


@<TRIPOS>ATOM
      1 C1          18.2270   -12.5200     0.9920 c          1 A1H       0.726000
      2 C10         14.5110   -13.4610     5.2390 ca         1 A1H      -0.094000
      3 C2          18.4070   -13.6390     2.0280 c3         1 A1H      -0.178200
      4 C3          17.0940   -14.0400     2.6570 cc         1 A1H       0.009600
      5 C4          16.3170   -15.1110     2.2380 cd         1 A1H      -0.148400
      6 C5          15.2650   -13.9620     4.1670 ca         1 A1H      -0.152000
      7 C6          16.4600   -13.3770     3.7870 ca         1 A1H      -0.052800
      8 C7          16.9470   -12.2500     4.4770 ca         1 A1H      -0.060000
      9 C8          16.2040   -11.7320     5.5570 ca         1 A1H      -0.139000
     10 C9          14.9890   -12.3370     5.9380 ca         1 A1H      -0.124000
     11 O1          18.2800   -11.3620     1.3770 o          1 A1H      -0.723500
     12 O2          17.9260   -12.8390    -0.1490 o          1 A1H      -0.723500
     13 S1          14.8190   -15.3580     3.1780 ss         1 A1H      -0.038600
     14 H2          18.7900   -14.5380     1.5300 hc         1 A1H       0.032700
     15 H3          19.0590   -13.3000     2.8410 hc         1 A1H       0.032700
     16 H5          16.5390   -15.7850     1.4180 h4         1 A1H       0.217000
     17 H7          17.8820   -11.7780     4.1860 ha         1 A1H       0.122000
     18 H8          16.5700   -10.8620     6.0970 ha         1 A1H       0.097000
     19 H9          14.4190   -11.9330     6.7720 ha         1 A1H       0.092000
     20 H1          13.5730   -13.9330     5.5250 ha         1 A1H       0.103000
@<TRIPOS>BOND
     1     1     3 1   
     2     1    11 1   
     3     1    12 1   
     4     2     6 ar  
     5     2    10 ar  
     6     2    20 1   
     7     3     4 1   
     8     3    14 1   
     9     3    15 1   
    10     4     5 2   
    11     4     7 1   
    12     5    13 1   
    13     5    16 1   
    14     6     7 ar  
    15     6    13 1   
    16     7     8 ar  
    17     8     9 ar  
    18     8    17 1   
    19     9    10 ar  
    20     9    18 1   
    21    10    19 1   
@<TRIPOS>SUBSTRUCTURE
     1 A1H         1 TEMP              0 ****  ****    0 ROOT
