@<TRIPOS>MOLECULE
A1H
   20    20     1     0     0
SMALL
No Charge or Current Charge


@<TRIPOS>ATOM
      1 C1          19.5330   -27.5800    12.2810 c3         1 A1H      -0.089100
      2 C2          18.2910   -28.3730    12.7330 c3         1 A1H       0.211800
      3 C3          17.1910   -27.4700    13.2940 ca         1 A1H      -0.073300
      4 C4          15.9290   -27.4210    12.6650 ca         1 A1H      -0.098000
      5 C5          14.9140   -26.5880    13.1680 ca         1 A1H      -0.089000
      6 C6          15.1520   -25.8000    14.3060 ca         1 A1H      -0.016900
      7 C7          16.4040   -25.8420    14.9420 ca         1 A1H      -0.089000
      8 C8          17.4190   -26.6740    14.4380 ca         1 A1H      -0.098000
      9 N1          18.6700   -29.4070    13.7090 n8         1 A1H      -1.002200
     10 Br1         13.7710   -24.6690    14.9900 br         1 A1H      -0.104100
     11 H1          20.2710   -28.2450    11.8180 hc         1 A1H       0.041700
     12 H2          19.2490   -26.8220    11.5410 hc         1 A1H       0.041700
     13 H3          20.0100   -27.0710    13.1260 hc         1 A1H       0.041700
     14 H4          17.8940   -28.8970    11.8520 h1         1 A1H       0.020700
     15 H5          15.7350   -28.0260    11.7820 ha         1 A1H       0.123500
     16 H6          13.9440   -26.5560    12.6760 ha         1 A1H       0.128500
     17 H7          16.5880   -25.2330    15.8240 ha         1 A1H       0.128500
     18 H8          18.3830   -26.7050    14.9400 ha         1 A1H       0.123500
     19 H9          17.8430   -29.9790    13.9140 hn         1 A1H       0.399000
     20 H10         19.3140   -30.0660    13.2570 hn         1 A1H       0.399000
@<TRIPOS>BOND
     1     1     2 1   
     2     1    11 1   
     3     1    12 1   
     4     1    13 1   
     5     2     3 1   
     6     2     9 1   
     7     2    14 1   
     8     3     4 ar  
     9     3     8 ar  
    10     4     5 ar  
    11     4    15 1   
    12     5     6 ar  
    13     5    16 1   
    14     6     7 ar  
    15     6    10 1   
    16     7     8 ar  
    17     7    17 1   
    18     8    18 1   
    19     9    19 1   
    20     9    20 1   
@<TRIPOS>SUBSTRUCTURE
     1 A1H         1 TEMP              0 ****  ****    0 ROOT
