@<TRIPOS>MOLECULE
A1H
   29    30     1     0     0
SMALL
abcg2


@<TRIPOS>ATOM
      1 C4          -0.5950    25.4010    26.4850 ca         1 A1H      -0.092600
      2 C5          -0.3870    26.1730    27.6220 ca         1 A1H      -0.158000
      3 C6          -1.0910    25.9070    28.7880 ca         1 A1H       0.217500
      4 C8          -2.2450    24.2160    27.7550 ca         1 A1H       0.271500
      5 C10         -1.8940    23.5470    25.3950 cc         1 A1H      -0.028000
      6 C13         -2.5540    22.5530    23.4900 cd         1 A1H      -0.153000
      7 C21         -3.3290    23.1560    27.9040 c          1 A1H       0.636500
      8 C24         -0.8380    26.7330    30.0550 c          1 A1H       0.619500
      9 C12         -1.9900    21.5910    24.2950 cc         1 A1H      -0.307600
     10 C14         -2.5080    23.7950    24.1750 cd         1 A1H      -0.206600
     11 C18         -1.7800    20.1220    24.1110 c          1 A1H       0.751600
     12 C2           0.2810    25.6450    25.2650 c          1 A1H       0.740600
     13 C9          -1.5760    24.4110    26.5400 ca         1 A1H       0.002000
     14 N11         -1.6020    22.2250    25.4410 na         1 A1H      -0.062000
     15 N7          -1.9940    24.9310    28.8470 nb         1 A1H      -0.677000
     16 O1           0.8560    24.6470    24.7950 o          1 A1H      -0.768000
     17 O16         -3.5130    25.1030    22.5140 o          1 A1H      -0.787000
     18 O17         -3.1230    26.0410    24.5000 o          1 A1H      -0.787000
     19 O19         -2.1710    19.6300    23.0340 o          1 A1H      -0.804500
     20 O20         -1.2300    19.5250    25.0630 o          1 A1H      -0.804500
     21 O22         -3.0350    22.1710    28.6070 o          1 A1H      -0.759500
     22 O23         -4.4050    23.3920    27.3260 o          1 A1H      -0.759500
     23 O25          0.0420    27.6130    29.9640 o          1 A1H      -0.787000
     24 O26         -1.5250    26.4590    31.0540 o          1 A1H      -0.787000
     25 O3           0.3760    26.8280    24.8870 o          1 A1H      -0.768000
     26 H5           0.3450    26.9690    27.6130 ha         1 A1H       0.094000
     27 H13         -2.9770    22.3830    22.5120 ha         1 A1H       0.082000
     28 H11         -1.1590    21.7510    26.2120 hn         1 A1H       0.334000
     29 C15         -3.0890    25.0890    23.6920 c          1 A1H       0.747600
@<TRIPOS>BOND
     1     1     2 ar  
     2     1    12 1   
     3     1    13 ar  
     4     2     3 ar  
     5     2    26 1   
     6     3     8 1   
     7     3    15 ar  
     8     4     7 1   
     9     4    13 ar  
    10     4    15 ar  
    11     5    10 2   
    12     5    13 1   
    13     5    14 1   
    14     6     9 2   
    15     6    10 1   
    16     6    27 1   
    17     7    21 1   
    18     7    22 1   
    19     8    23 1   
    20     8    24 1   
    21     9    11 1   
    22     9    14 1   
    23    10    29 1   
    24    11    19 1   
    25    11    20 1   
    26    12    16 1   
    27    12    25 1   
    28    14    28 1   
    29    17    29 1   
    30    18    29 1   
@<TRIPOS>SUBSTRUCTURE
     1 A1H         1 TEMP              0 ****  ****    0 ROOT
