@<TRIPOS>MOLECULE
A1H
   20    20     1     0     0
SMALL
abcg2


@<TRIPOS>ATOM
      1 C1          19.5460   -27.6390    12.0820 c3         1 A1H      -0.089100
      2 C2          18.4990   -28.4730    12.8160 c3         1 A1H       0.210800
      3 C3          17.3920   -27.5780    13.3230 ca         1 A1H      -0.070300
      4 C4          17.5130   -26.8800    14.5210 ca         1 A1H      -0.100000
      5 C5          16.5140   -26.0210    14.9560 ca         1 A1H      -0.084500
      6 C6          15.3740   -25.8590    14.1810 ca         1 A1H       0.198000
      7 C7          15.2260   -26.5420    12.9840 ca         1 A1H      -0.084500
      8 C8          16.2370   -27.3980    12.5680 ca         1 A1H      -0.100000
      9 I1          13.8480   -24.5650    14.8370 i          1 A1H      -0.320000
     10 N1          19.1360   -29.1740    13.9210 n8         1 A1H      -1.002200
     11 H1          20.3340   -28.2770    11.6770 hc         1 A1H       0.042033
     12 H2          19.0990   -27.0930    11.2520 hc         1 A1H       0.042033
     13 H3          20.0060   -26.9170    12.7590 hc         1 A1H       0.042033
     14 H4          18.0500   -29.1600    12.0830 h1         1 A1H       0.020700
     15 H5          18.3980   -27.0090    15.1310 ha         1 A1H       0.123500
     16 H6          16.6340   -25.4900    15.8910 ha         1 A1H       0.126500
     17 H7          14.3390   -26.4240    12.3760 ha         1 A1H       0.126500
     18 H8          16.1170   -27.9360    11.6350 ha         1 A1H       0.123500
     19 H9          18.4810   -29.8240    14.3390 hn         1 A1H       0.399500
     20 H10         19.8980   -29.7370    13.5630 hn         1 A1H       0.399500
@<TRIPOS>BOND
     1     1     2 1   
     2     1    11 1   
     3     1    12 1   
     4     1    13 1   
     5     2     3 1   
     6     2    10 1   
     7     2    14 1   
     8     3     4 ar  
     9     3     8 ar  
    10     4     5 ar  
    11     4    15 1   
    12     5     6 ar  
    13     5    16 1   
    14     6     7 ar  
    15     6     9 1   
    16     7     8 ar  
    17     7    17 1   
    18     8    18 1   
    19    10    19 1   
    20    10    20 1   
@<TRIPOS>SUBSTRUCTURE
     1 A1H         1 TEMP              0 ****  ****    0 ROOT
