@<TRIPOS>MOLECULE
A1H
   45    47     1     0     0
SMALL
No Charge or Current Charge


@<TRIPOS>ATOM
      1 N1          16.5540    64.8140    45.3700 na         1 A1H      -0.216700
      2 C4          17.1600    67.5050    39.0250 ca         1 A1H      -0.130000
      3 C5          17.1440    68.0910    40.3080 ca         1 A1H      -0.240500
      4 C6          16.0480    67.8490    41.1600 ca         1 A1H      -0.130000
      5 C7          13.9160    67.1090    42.9830 c3         1 A1H       0.143400
      6 C8          13.7090    64.9320    37.8960 c3         1 A1H       0.150900
      7 C10         18.7410    67.1410    42.6910 ca         1 A1H       0.022100
      8 C13         17.2980    65.6860    44.5920 ca         1 A1H      -0.026200
      9 C15         18.2900    65.8320    42.3890 ca         1 A1H       0.227000
     10 C17         16.9530    63.8430    43.3440 cc         1 A1H      -0.211200
     11 C1          14.9880    67.0130    40.7490 ca         1 A1H       0.141600
     12 C11         18.4810    67.6990    43.9680 ca         1 A1H      -0.064000
     13 C12         17.7500    66.9690    44.9310 ca         1 A1H      -0.132000
     14 C14         17.5610    65.1400    43.3670 ca         1 A1H      -0.138800
     15 C16         16.3390    63.6630    44.5760 cd         1 A1H      -0.059300
     16 C18         15.5570    62.4720    45.0610 c3         1 A1H      -0.040900
     17 C2          14.9930    66.4310    39.4580 ca         1 A1H       0.081100
     18 C3          16.0960    66.6830    38.5810 ca         1 A1H       0.141600
     19 C9          17.2150    66.3280    36.3870 c3         1 A1H       0.143400
     20 F1          18.5260    65.2690    41.1810 f          1 A1H      -0.153000
     21 O1          13.9250    66.7300    41.5940 os         1 A1H      -0.324600
     22 O2          13.8950    65.6280    39.1410 os         1 A1H      -0.333100
     23 O3          16.1320    66.1230    37.3130 os         1 A1H      -0.324600
     24 O4          19.3860    69.5020    39.7440 o          1 A1H      -0.530500
     25 O5          18.0700    70.0740    41.8790 o          1 A1H      -0.530500
     26 O6          19.4040    67.8860    41.7390 os         1 A1H      -0.412800
     27 S1          18.5500    69.1020    40.8850 sy         1 A1H       1.276200
     28 H14         16.2280    64.9680    46.3180 hn         1 A1H       0.352000
     29 H1          18.0160    67.6950    38.3830 ha         1 A1H       0.145000
     30 H2          16.0440    68.2990    42.1500 ha         1 A1H       0.145000
     31 H5          13.0040    66.7400    43.4700 h1         1 A1H       0.045867
     32 H3          14.7790    66.6810    43.5090 h1         1 A1H       0.045867
     33 H4          13.9390    68.2000    43.0920 h1         1 A1H       0.045867
     34 H7          12.7650    64.3730    37.9140 h1         1 A1H       0.037367
     35 H8          13.6640    65.6360    37.0550 h1         1 A1H       0.037367
     36 H6          14.5200    64.2120    37.7230 h1         1 A1H       0.037367
     37 H15         16.9550    63.1270    42.5250 ha         1 A1H       0.218000
     38 H12         18.8330    68.7000    44.2050 ha         1 A1H       0.141000
     39 H13         17.5380    67.3960    45.9090 ha         1 A1H       0.126000
     40 H18         16.0130    62.0420    45.9600 hc         1 A1H       0.052700
     41 H16         14.5260    62.7530    45.3070 hc         1 A1H       0.052700
     42 H17         15.5160    61.6860    44.2980 hc         1 A1H       0.052700
     43 H11         17.0210    65.7880    35.4520 h1         1 A1H       0.045867
     44 H9          17.3270    67.3920    36.1460 h1         1 A1H       0.045867
     45 H10         18.1600    65.9560    36.8020 h1         1 A1H       0.045867
@<TRIPOS>BOND
     1     1     8 1   
     2     1    15 1   
     3     1    28 1   
     4     2     3 ar  
     5     2    18 ar  
     6     2    29 1   
     7     3     4 ar  
     8     3    27 1   
     9     4    11 ar  
    10     4    30 1   
    11     5    21 1   
    12     5    31 1   
    13     5    32 1   
    14     5    33 1   
    15     6    22 1   
    16     6    34 1   
    17     6    35 1   
    18     6    36 1   
    19     7     9 ar  
    20     7    12 ar  
    21     7    26 1   
    22     8    13 ar  
    23     8    14 ar  
    24     9    14 ar  
    25     9    20 1   
    26    10    14 1   
    27    10    15 2   
    28    10    37 1   
    29    11    17 ar  
    30    11    21 1   
    31    12    13 ar  
    32    12    38 1   
    33    13    39 1   
    34    15    16 1   
    35    16    40 1   
    36    16    41 1   
    37    16    42 1   
    38    17    18 ar  
    39    17    22 1   
    40    18    23 1   
    41    19    23 1   
    42    19    43 1   
    43    19    44 1   
    44    19    45 1   
    45    24    27 2   
    46    25    27 2   
    47    26    27 1   
@<TRIPOS>SUBSTRUCTURE
     1 A1H         1 TEMP              0 ****  ****    0 ROOT
