@<TRIPOS>MOLECULE
A1H
   41    43     1     0     0
SMALL
abcg2


@<TRIPOS>ATOM
      1 C1         121.5810   102.7180   132.5920 cc         1 A1H      -0.102300
      2 C2         120.2970   102.9500   133.1620 cc         1 A1H      -0.050000
      3 C3         120.2420   104.2770   133.4220 cd         1 A1H      -0.116100
      4 C7         124.0200   105.7690   133.9000 c3         1 A1H       0.092300
      5 C8         119.1090   103.9460   136.4820 ca         1 A1H       0.211000
      6 C9         117.8790   103.4270   136.8260 ca         1 A1H      -0.036000
      7 C10        117.7660   102.1960   137.4830 ca         1 A1H      -0.130000
      8 C11        118.8890   101.4730   137.8170 ca         1 A1H       0.182000
      9 C12        120.1600   101.9650   137.5040 ca         1 A1H      -0.083800
     10 C13        120.2450   103.2040   136.8280 ca         1 A1H      -0.055200
     11 C14        122.3260   102.4760   137.1360 cc         1 A1H      -0.153100
     12 C15        121.5090   101.5310   137.6800 cd         1 A1H       0.054800
     13 N          124.1670   105.3490   132.5200 n          1 A1H      -0.398800
     14 C          122.0960   101.3990   132.1290 c3         1 A1H      -0.027800
     15 O          121.3810   104.8890   133.0830 os         1 A1H      -0.179000
     16 C4         122.1940   103.9370   132.5690 cd         1 A1H       0.097500
     17 C5         123.4720   104.3550   131.9410 c          1 A1H       0.535600
     18 C6         125.2920   105.9240   131.8100 c3         1 A1H       0.092300
     19 N1         119.2090   105.1800   135.7980 nu         1 A1H      -0.892100
     20 N2         121.5600   103.4780   136.6230 na         1 A1H      -0.213700
     21 O1         123.8140   103.8050   130.9020 o          1 A1H      -0.570100
     22 O2         119.1390   106.6060   133.7690 o          1 A1H      -0.512500
     23 O3         117.7530   104.4870   133.8910 o          1 A1H      -0.512500
     24 S          118.9680   105.2240   134.1610 sy         1 A1H       1.123200
     25 CL         122.0550   100.0950   138.4370 cl         1 A1H      -0.136000
     26 CL1        118.7100    99.9590   138.6300 cl         1 A1H      -0.173000
     27 H1         119.5250   102.2180   133.3430 ha         1 A1H       0.167000
     28 H2         125.0120   105.8950   134.3330 h1         1 A1H       0.043700
     29 H3         123.4870   106.7170   133.9850 h1         1 A1H       0.043700
     30 H4         123.5100   105.0180   134.4950 h1         1 A1H       0.043700
     31 H5         116.9830   103.9830   136.5900 ha         1 A1H       0.144000
     32 H6         116.7850   101.8170   137.7350 ha         1 A1H       0.139000
     33 H7         123.4010   102.5050   137.0760 h4         1 A1H       0.230000
     34 H8         121.6230   101.1100   131.1900 hc         1 A1H       0.055700
     35 H9         123.1710   101.4130   131.9710 hc         1 A1H       0.055700
     36 H10        121.8660   100.6250   132.8610 hc         1 A1H       0.055700
     37 H11        125.3890   106.9710   132.0950 h1         1 A1H       0.043700
     38 H12        126.2260   105.4140   132.0530 h1         1 A1H       0.043700
     39 H13        125.1380   105.8760   130.7360 h1         1 A1H       0.043700
     40 H14        119.9160   105.8360   136.1180 hn         1 A1H       0.494000
     41 H15        121.9330   104.3100   136.1950 hn         1 A1H       0.351000
@<TRIPOS>BOND
     1     1     2 1   
     2     1    14 1   
     3     1    16 2   
     4     2     3 2   
     5     2    27 1   
     6     3    15 1   
     7     3    24 1   
     8     4    13 1   
     9     4    28 1   
    10     4    29 1   
    11     4    30 1   
    12     5     6 ar  
    13     5    10 ar  
    14     5    19 1   
    15     6     7 ar  
    16     6    31 1   
    17     7     8 ar  
    18     7    32 1   
    19     8     9 ar  
    20     8    26 1   
    21     9    10 ar  
    22     9    12 1   
    23    10    20 1   
    24    11    12 2   
    25    11    20 1   
    26    11    33 1   
    27    12    25 1   
    28    13    17 1   
    29    13    18 1   
    30    14    34 1   
    31    14    35 1   
    32    14    36 1   
    33    15    16 1   
    34    16    17 1   
    35    17    21 2   
    36    18    37 1   
    37    18    38 1   
    38    18    39 1   
    39    19    24 1   
    40    19    40 1   
    41    20    41 1   
    42    22    24 2   
    43    23    24 2   
@<TRIPOS>SUBSTRUCTURE
     1 A1H         1 TEMP              0 ****  ****    0 ROOT
