@<TRIPOS>MOLECULE
A1H
   69    72     1     0     0
SMALL
No Charge or Current Charge


@<TRIPOS>ATOM
      1 C8         -19.6920   -12.6440   -10.8750 c          1 A1H       0.595100
      2 C10        -19.8770   -10.8500    -9.0610 c3         1 A1H       0.104300
      3 C15        -21.0780   -13.8930    -8.1320 c3         1 A1H       0.283100
      4 C17        -20.5830   -12.7920    -5.9080 ca         1 A1H      -0.102000
      5 C20        -18.3300   -12.6330    -5.0110 ca         1 A1H      -0.107000
      6 C21        -17.8310   -13.3030    -6.1420 ca         1 A1H      -0.183000
      7 C22        -18.7100   -13.7180    -7.1720 ca         1 A1H       0.146100
      8 C24        -16.8630   -14.5320    -8.6250 c3         1 A1H       0.165600
      9 C26        -16.5140   -12.8420   -10.5780 c3         1 A1H       0.096000
     10 C28        -16.7280   -10.3180   -10.7300 c          1 A1H       0.605100
     11 C12        -22.6300   -12.7490    -9.7810 c2         1 A1H       0.638100
     12 C16        -20.0940   -13.4680    -7.0460 ca         1 A1H      -0.105300
     13 C18        -19.7030   -12.3770    -4.8990 ca         1 A1H       0.128000
     14 C25        -16.2840   -13.1710    -9.0830 c3         1 A1H      -0.126400
     15 C29        -15.2850   -10.1950   -10.1700 c3         1 A1H       0.077600
     16 C31        -13.5740    -8.4730    -9.6690 ca         1 A1H       0.149100
     17 C32        -13.2080    -7.1080    -9.6730 ca         1 A1H       0.088000
     18 C34        -11.9380    -6.7130    -9.2190 ca         1 A1H      -0.062000
     19 C35        -11.0260    -7.6760    -8.7590 ca         1 A1H       0.087000
     20 C37        -11.3800    -9.0350    -8.7500 ca         1 A1H      -0.063000
     21 C38        -12.6510    -9.4380    -9.2040 ca         1 A1H      -0.192000
     22 C40        -18.6030   -11.7890   -11.5960 c3         1 A1H       0.029700
     23 C41        -18.3400   -12.2790   -13.0530 c3         1 A1H      -0.041100
     24 C42        -17.3330   -11.4070   -13.7960 ca         1 A1H      -0.093300
     25 C43        -16.0120   -11.8560   -13.9980 ca         1 A1H      -0.104500
     26 C44        -15.0780   -11.0390   -14.6580 ca         1 A1H      -0.101500
     27 C45        -15.4590    -9.7700   -15.1240 ca         1 A1H      -0.096000
     28 C46        -16.7760    -9.3190   -14.9300 ca         1 A1H      -0.101500
     29 C47        -17.7100   -10.1350   -14.2690 ca         1 A1H      -0.104500
     30 F19        -20.1810   -11.7300    -3.8140 f          1 A1H      -0.178000
     31 N11        -21.4430   -12.8020    -9.0630 nh         1 A1H      -0.534600
     32 N14        -23.6420   -13.4540    -9.4340 n2         1 A1H      -0.841100
     33 N27        -17.3180   -11.6140   -10.8300 n          1 A1H      -0.398800
     34 N9         -20.2970   -12.1240    -9.6860 n          1 A1H      -0.243200
     35 O23        -18.2580   -14.3710    -8.3090 os         1 A1H      -0.334100
     36 O30        -14.8330    -8.8220   -10.1230 os         1 A1H      -0.292100
     37 O39        -17.3650    -9.3200   -11.0490 o          1 A1H      -0.551100
     38 O7         -20.0560   -13.7250   -11.3320 o          1 A1H      -0.577100
     39 Cl33       -14.3330    -5.8760   -10.2460 cl         1 A1H      -0.162000
     40 Cl36        -9.4370    -7.1800    -8.1910 cl         1 A1H      -0.192000
     41 H10A       -20.5260   -10.6180    -8.2070 h1         1 A1H       0.052033
     42 H10B       -18.8450   -10.9370    -8.6980 h1         1 A1H       0.052033
     43 H10C       -19.9450   -10.0300    -9.7860 h1         1 A1H       0.052033
     44 H15A       -21.9790   -14.2550    -7.6190 h1         1 A1H       0.075700
     45 H15B       -20.6850   -14.7490    -8.6960 h1         1 A1H       0.075700
     46 H17        -21.6450   -12.5830    -5.8090 ha         1 A1H       0.139000
     47 H20        -17.6540   -12.3100    -4.2220 ha         1 A1H       0.131000
     48 H21        -16.7630   -13.4850    -6.1990 ha         1 A1H       0.117000
     49 H24B       -16.7370   -15.2700    -9.4280 h1         1 A1H       0.060200
     50 H24A       -16.3090   -14.9130    -7.7580 h1         1 A1H       0.060200
     51 H26B       -17.0140   -13.7000   -11.0460 h1         1 A1H       0.060200
     52 H26A       -15.5450   -12.7510   -11.0850 h1         1 A1H       0.060200
     53 H1         -22.6440   -12.0520   -10.6210 h5         1 A1H      -0.021200
     54 H25A       -15.2010   -13.1980    -8.9110 hc         1 A1H       0.053200
     55 H25B       -16.6690   -12.3610    -8.4540 hc         1 A1H       0.053200
     56 H29B       -14.6250   -10.7870   -10.8150 h1         1 A1H       0.052700
     57 H29A       -15.2760   -10.6290    -9.1650 h1         1 A1H       0.052700
     58 H34        -11.6620    -5.6620    -9.2240 ha         1 A1H       0.146000
     59 H37        -10.6690    -9.7770    -8.3920 ha         1 A1H       0.131000
     60 H38        -12.8960   -10.4960    -9.1850 ha         1 A1H       0.119000
     61 H40        -19.0810   -10.8100   -11.7040 h1         1 A1H       0.100700
     62 H41A       -19.2900   -12.2840   -13.6010 hc         1 A1H       0.065700
     63 H41B       -18.0000   -13.3220   -13.0420 hc         1 A1H       0.065700
     64 H43        -15.7060   -12.8360   -13.6390 ha         1 A1H       0.105000
     65 H44        -14.0590   -11.3900   -14.8080 ha         1 A1H       0.112500
     66 H45        -14.7360    -9.1370   -15.6340 ha         1 A1H       0.115000
     67 H46        -17.0720    -8.3360   -15.2900 ha         1 A1H       0.112500
     68 H47        -18.7240    -9.7750   -14.1170 ha         1 A1H       0.105000
     69 H3         -24.4090   -13.2460   -10.0890 hn         1 A1H       0.389400
@<TRIPOS>BOND
     1     1    22 1   
     2     1    34 1   
     3     1    38 2   
     4     2    34 1   
     5     2    41 1   
     6     2    42 1   
     7     2    43 1   
     8     3    12 1   
     9     3    31 1   
    10     3    44 1   
    11     3    45 1   
    12     4    12 ar  
    13     4    13 ar  
    14     4    46 1   
    15     5     6 ar  
    16     5    13 ar  
    17     5    47 1   
    18     6     7 ar  
    19     6    48 1   
    20     7    12 ar  
    21     7    35 1   
    22     8    14 1   
    23     8    35 1   
    24     8    49 1   
    25     8    50 1   
    26     9    14 1   
    27     9    33 1   
    28     9    51 1   
    29     9    52 1   
    30    10    15 1   
    31    10    33 1   
    32    10    37 2   
    33    11    31 1   
    34    11    32 2   
    35    11    53 1   
    36    13    30 1   
    37    14    54 1   
    38    14    55 1   
    39    15    36 1   
    40    15    56 1   
    41    15    57 1   
    42    16    17 ar  
    43    16    21 ar  
    44    16    36 1   
    45    17    18 ar  
    46    17    39 1   
    47    18    19 ar  
    48    18    58 1   
    49    19    20 ar  
    50    19    40 1   
    51    20    21 ar  
    52    20    59 1   
    53    21    60 1   
    54    22    23 1   
    55    22    33 1   
    56    22    61 1   
    57    23    24 1   
    58    23    62 1   
    59    23    63 1   
    60    24    25 ar  
    61    24    29 ar  
    62    25    26 ar  
    63    25    64 1   
    64    26    27 ar  
    65    26    65 1   
    66    27    28 ar  
    67    27    66 1   
    68    28    29 ar  
    69    28    67 1   
    70    29    68 1   
    71    31    34 1   
    72    32    69 1   
@<TRIPOS>SUBSTRUCTURE
     1 A1H         1 TEMP              0 ****  ****    0 ROOT
