@<TRIPOS>MOLECULE
A1H
   57    61     1     0     0
SMALL
No Charge or Current Charge


@<TRIPOS>ATOM
      1 N1          -1.6350   -16.2110    26.1070 nc         1 A1H      -0.513100
      2 N3          -3.6320   -15.3150    30.1750 nb         1 A1H      -0.312000
      3 C4           6.2610   -11.1380    26.6640 ca         1 A1H      -0.092000
      4 C5           4.9150   -10.9660    26.2960 ca         1 A1H      -0.132500
      5 C6           3.8940   -11.5520    27.0640 ca         1 A1H       0.109100
      6 C7           1.6190   -12.3330    26.8020 ca         1 A1H       0.137100
      7 C8           1.9100   -13.6810    26.5220 ca         1 A1H      -0.155000
      8 C10          0.3130   -11.9610    27.1530 ca         1 A1H      -0.155000
      9 C13         -1.4650   -15.3140    27.0840 cd         1 A1H       0.440500
     10 C15         -2.6280   -14.9160    29.3850 ca         1 A1H       0.457900
     11 C17         -3.2650   -16.4980    27.7170 ca         1 A1H       0.159500
     12 C20         -3.2080   -19.4170    26.4290 c6         1 A1H      -0.091400
     13 C21         -3.8610   -20.5560    25.6020 c6         1 A1H      -0.094400
     14 C22         -5.3250   -20.2010    25.2490 c6         1 A1H       0.104000
     15 C24         -6.1390   -19.9600    22.3550 ce         1 A1H      -0.295200
     16 C1           4.2200   -12.2950    28.2160 ca         1 A1H      -0.132500
     17 C2           5.5670   -12.4670    28.5840 ca         1 A1H      -0.092000
     18 C3           6.5860   -11.8910    27.8060 ca         1 A1H      -0.121000
     19 O1           2.5830   -11.3560    26.6900 os         1 A1H      -0.253200
     20 C9           0.9020   -14.6550    26.6270 ca         1 A1H      -0.067000
     21 C11         -0.6960   -12.9350    27.2580 ca         1 A1H      -0.067000
     22 C12         -0.4020   -14.2950    27.0290 ca         1 A1H      -0.128900
     23 C14         -2.4490   -15.4810    28.1260 ca         1 A1H      -0.382900
     24 N2          -1.8040   -13.9910    29.9190 nv         1 A1H      -1.066900
     25 C16         -4.4260   -16.2950    29.6810 ca         1 A1H       0.196900
     26 N4          -4.2860   -16.9230    28.4900 nb         1 A1H      -0.238000
     27 N5          -2.7680   -16.9330    26.4900 na         1 A1H      -0.019100
     28 C18         -3.3560   -18.0480    25.7040 c6         1 A1H       0.091300
     29 C19         -4.8350   -17.7750    25.3140 c6         1 A1H       0.074000
     30 N6          -5.3800   -18.9090    24.5140 n          1 A1H      -0.410800
     31 C23         -5.7860   -18.7510    23.1680 c          1 A1H       0.610300
     32 O2          -5.9170   -17.6330    22.6870 o          1 A1H      -0.602100
     33 C25         -7.0420   -19.9540    21.3430 c2         1 A1H      -0.237000
     34 H5           4.6610   -10.3830    25.4150 ha         1 A1H       0.127500
     35 H6           2.9110   -13.9730    26.2150 ha         1 A1H       0.131500
     36 H8           0.0800   -10.9150    27.3370 ha         1 A1H       0.131500
     37 H19         -2.1450   -19.6390    26.5970 hc         1 A1H       0.062700
     38 H18         -3.6780   -19.3780    27.4200 hc         1 A1H       0.062700
     39 H21         -3.2900   -20.7250    24.6790 hc         1 A1H       0.051200
     40 H20         -3.8310   -21.4970    26.1690 hc         1 A1H       0.051200
     41 H23         -5.7940   -21.0220    24.6940 h1         1 A1H       0.052700
     42 H22         -5.9010   -20.0970    26.1810 h1         1 A1H       0.052700
     43 H24         -5.6800   -20.9000    22.6500 ha         1 A1H       0.179000
     44 H1           3.4350   -12.7340    28.8280 ha         1 A1H       0.127500
     45 H2           5.8190   -13.0440    29.4720 ha         1 A1H       0.116500
     46 H3           7.6280   -12.0240    28.0910 ha         1 A1H       0.117000
     47 H7           1.1360   -15.6940    26.4030 ha         1 A1H       0.126000
     48 H9          -1.7110   -12.6290    27.5070 ha         1 A1H       0.126000
     49 H11         -1.8740   -13.8180    30.9180 hn         1 A1H       0.502500
     50 H12         -0.8930   -13.8500    29.4940 hn         1 A1H       0.502500
     51 H13         -5.2470   -16.6260    30.3150 h5         1 A1H       0.045100
     52 H15         -2.7870   -18.1130    24.7660 h1         1 A1H       0.087700
     53 H16         -5.4500   -17.6520    26.2160 h1         1 A1H       0.079700
     54 H17         -4.8900   -16.8310    24.7540 h1         1 A1H       0.079700
     55 H26         -7.2960   -20.8630    20.7950 ha         1 A1H       0.175000
     56 H25         -7.5550   -19.0420    21.0320 ha         1 A1H       0.175000
     57 H4           7.0510   -10.6880    26.0650 ha         1 A1H       0.116500
@<TRIPOS>BOND
     1     1     9 2   
     2     1    27 1   
     3     2    10 ar  
     4     2    25 ar  
     5     3     4 ar  
     6     3    18 ar  
     7     3    57 1   
     8     4     5 ar  
     9     4    34 1   
    10     5    16 ar  
    11     5    19 1   
    12     6     7 ar  
    13     6     8 ar  
    14     6    19 1   
    15     7    20 ar  
    16     7    35 1   
    17     8    21 ar  
    18     8    36 1   
    19     9    22 1   
    20     9    23 1   
    21    10    23 ar  
    22    10    24 1   
    23    11    23 ar  
    24    11    26 ar  
    25    11    27 1   
    26    12    13 1   
    27    12    28 1   
    28    12    37 1   
    29    12    38 1   
    30    13    14 1   
    31    13    39 1   
    32    13    40 1   
    33    14    30 1   
    34    14    41 1   
    35    14    42 1   
    36    15    31 1   
    37    15    33 2   
    38    15    43 1   
    39    16    17 ar  
    40    16    44 1   
    41    17    18 ar  
    42    17    45 1   
    43    18    46 1   
    44    20    22 ar  
    45    20    47 1   
    46    21    22 ar  
    47    21    48 1   
    48    24    49 1   
    49    24    50 1   
    50    25    26 ar  
    51    25    51 1   
    52    27    28 1   
    53    28    29 1   
    54    28    52 1   
    55    29    30 1   
    56    29    53 1   
    57    29    54 1   
    58    30    31 1   
    59    31    32 2   
    60    33    55 1   
    61    33    56 1   
@<TRIPOS>SUBSTRUCTURE
     1 A1H         1 TEMP              0 ****  ****    0 ROOT
