@<TRIPOS>MOLECULE
A1H
   55    58     1     0     0
SMALL
abcg2


@<TRIPOS>ATOM
      1 C1          84.2840    89.7670    74.7900 cc         1 A1H      -0.113300
      2 C2          85.3420    90.0130    73.8670 cc         1 A1H      -0.047000
      3 C3          84.8410    90.8760    72.9530 cd         1 A1H      -0.104100
      4 O4          86.8610    90.8940    71.4190 o          1 A1H      -0.524000
      5 C7          79.8540    88.9470    72.6400 c6         1 A1H      -0.087900
      6 C8          78.4320    89.3460    73.0490 c6         1 A1H      -0.139700
      7 C9          78.4820    89.9970    74.4290 c6         1 A1H      -0.087900
      8 C10         79.5100    91.1170    74.5140 c6         1 A1H       0.099000
      9 C11         77.7570    90.2340    72.0060 c          1 A1H       0.595100
     10 C12         76.9540    90.3470    69.7010 c3         1 A1H       0.095300
     11 C13         83.9860    89.9400    70.1390 ca         1 A1H       0.298000
     12 C14         84.6450    88.7570    70.4110 ca         1 A1H      -0.124000
     13 C15         84.0160    87.5170    70.2310 ca         1 A1H      -0.101000
     14 C16         82.7360    87.4350    69.7400 ca         1 A1H       0.152000
     15 C19         80.6340    90.2870    68.8790 cc         1 A1H      -0.141100
     16 C20         80.7410    88.9290    68.9260 cd         1 A1H       0.031800
     17 N           80.8250    90.6900    74.0550 n          1 A1H      -0.397800
     18 C           84.3560    88.8810    75.9850 c3         1 A1H      -0.025800
     19 O           83.5640    91.1820    73.2160 os         1 A1H      -0.177000
     20 C17         82.0370    88.6070    69.4260 ca         1 A1H      -0.070800
     21 C18         82.6730    89.8470    69.6560 ca         1 A1H      -0.066200
     22 C4          83.2250    90.4910    74.3280 cd         1 A1H       0.118500
     23 C5          81.8690    90.6860    74.9030 c          1 A1H       0.536600
     24 C6          80.8300    90.1130    72.7180 c6         1 A1H       0.099000
     25 N1          77.5960    89.6680    70.8000 ns         1 A1H      -0.509900
     26 N2          84.5440    91.2080    70.3530 nu         1 A1H      -0.952100
     27 N3          81.7980    90.8350    69.3180 na         1 A1H      -0.205700
     28 O1          81.7810    90.8640    76.1100 o          1 A1H      -0.574100
     29 O2          77.3730    91.3730    72.2400 o          1 A1H      -0.606100
     30 O3          85.5900    93.0390    71.6200 o          1 A1H      -0.524000
     31 S           85.5980    91.5920    71.5540 sy         1 A1H       1.168200
     32 CL          79.5040    87.8380    68.4610 cl         1 A1H      -0.150000
     33 CL1         82.0010    85.8860    69.5200 cl         1 A1H      -0.180000
     34 H1          86.3340    89.5910    73.8900 ha         1 A1H       0.165000
     35 H2          79.8890    88.5290    71.6330 hc         1 A1H       0.058700
     36 H3          80.2000    88.1570    73.3120 hc         1 A1H       0.058700
     37 H4          77.8340    88.4310    73.1140 hc         1 A1H       0.065700
     38 H5          77.5070    90.3920    74.7150 hc         1 A1H       0.058700
     39 H6          78.7360    89.2250    75.1610 hc         1 A1H       0.058700
     40 H7          79.5920    91.4750    75.5370 h1         1 A1H       0.065950
     41 H8          79.2000    91.9610    73.8960 h1         1 A1H       0.065950
     42 H9          76.9660    89.6900    68.8370 h1         1 A1H       0.039033
     43 H10         75.9170    90.5990    69.9270 h1         1 A1H       0.039033
     44 H11         77.4770    91.2660    69.4370 h1         1 A1H       0.039033
     45 H12         85.6670    88.7640    70.7600 ha         1 A1H       0.144000
     46 H13         84.5630    86.6160    70.4690 ha         1 A1H       0.137000
     47 H14         79.8090    90.9030    68.5620 h4         1 A1H       0.233000
     48 H15         84.9220    89.3600    76.7850 hc         1 A1H       0.053367
     49 H16         83.3700    88.6400    76.3730 hc         1 A1H       0.053367
     50 H17         84.8640    87.9500    75.7390 hc         1 A1H       0.053367
     51 H18         81.8190    89.7470    72.4590 h1         1 A1H       0.065950
     52 H19         80.5710    90.8870    71.9890 h1         1 A1H       0.065950
     53 H20         77.8770    88.7110    70.6610 hn         1 A1H       0.320500
     54 H21         84.3130    91.9780    69.7360 hn         1 A1H       0.517000
     55 H22         81.9470    91.8270    69.4130 hn         1 A1H       0.362000
@<TRIPOS>BOND
     1     1     2 1   
     2     1    18 1   
     3     1    22 2   
     4     2     3 2   
     5     2    34 1   
     6     3    19 1   
     7     3    31 1   
     8     4    31 2   
     9     5     6 1   
    10     5    24 1   
    11     5    35 1   
    12     5    36 1   
    13     6     7 1   
    14     6     9 1   
    15     6    37 1   
    16     7     8 1   
    17     7    38 1   
    18     7    39 1   
    19     8    17 1   
    20     8    40 1   
    21     8    41 1   
    22     9    25 1   
    23     9    29 2   
    24    10    25 1   
    25    10    42 1   
    26    10    43 1   
    27    10    44 1   
    28    11    12 ar  
    29    11    21 ar  
    30    11    26 1   
    31    12    13 ar  
    32    12    45 1   
    33    13    14 ar  
    34    13    46 1   
    35    14    20 ar  
    36    14    33 1   
    37    15    16 2   
    38    15    27 1   
    39    15    47 1   
    40    16    20 1   
    41    16    32 1   
    42    17    23 1   
    43    17    24 1   
    44    18    48 1   
    45    18    49 1   
    46    18    50 1   
    47    19    22 1   
    48    20    21 ar  
    49    21    27 1   
    50    22    23 1   
    51    23    28 2   
    52    24    51 1   
    53    24    52 1   
    54    25    53 1   
    55    26    31 1   
    56    26    54 1   
    57    27    55 1   
    58    30    31 2   
@<TRIPOS>SUBSTRUCTURE
     1 A1H         1 TEMP              0 ****  ****    0 ROOT
