@<TRIPOS>MOLECULE
A1H
   69    72     1     0     0
SMALL
abcg2


@<TRIPOS>ATOM
      1 C8         -19.5050   -12.7520   -10.7740 c          1 A1H       0.595100
      2 C10        -20.2430   -10.9330    -9.2260 c3         1 A1H       0.104300
      3 C15        -21.0260   -14.0380    -8.2490 c3         1 A1H       0.283100
      4 C17        -20.7750   -12.7350    -6.1340 ca         1 A1H      -0.102000
      5 C20        -18.6250   -12.1930    -5.2060 ca         1 A1H      -0.107000
      6 C21        -18.0100   -12.8650    -6.2550 ca         1 A1H      -0.183000
      7 C22        -18.7730   -13.4750    -7.2490 ca         1 A1H       0.146100
      8 C24        -16.8770   -14.4300    -8.3760 c3         1 A1H       0.165600
      9 C26        -16.4810   -12.9470   -10.4270 c3         1 A1H       0.096000
     10 C28        -16.7010   -10.4860   -10.3710 c          1 A1H       0.605100
     11 C12        -22.3680   -13.3000   -10.1640 c2         1 A1H       0.638100
     12 C16        -20.1710   -13.4080    -7.1870 ca         1 A1H      -0.105300
     13 C18        -20.0000   -12.1380    -5.1600 ca         1 A1H       0.128000
     14 C25        -16.0810   -13.2920    -8.9850 c3         1 A1H      -0.126400
     15 C29        -15.2490   -10.4490    -9.9060 c3         1 A1H       0.077600
     16 C31        -13.4660    -8.9130   -10.0160 ca         1 A1H       0.149100
     17 C32        -12.9690    -7.7040   -10.5150 ca         1 A1H       0.088000
     18 C34        -11.6750    -7.2940   -10.2570 ca         1 A1H      -0.062000
     19 C35        -10.8530    -8.1050    -9.4890 ca         1 A1H       0.087000
     20 C37        -11.3140    -9.3090    -8.9920 ca         1 A1H      -0.063000
     21 C38        -12.6170    -9.7100    -9.2560 ca         1 A1H      -0.192000
     22 C40        -18.4880   -11.7630   -11.3520 c3         1 A1H       0.029700
     23 C41        -18.2080   -12.0710   -12.8340 c3         1 A1H      -0.041100
     24 C42        -17.3350   -11.0020   -13.4280 ca         1 A1H      -0.093300
     25 C43        -15.9520   -11.1460   -13.4830 ca         1 A1H      -0.104500
     26 C44        -15.1430   -10.1090   -13.9320 ca         1 A1H      -0.101500
     27 C45        -15.7100    -8.9120   -14.3450 ca         1 A1H      -0.096000
     28 C46        -17.0920    -8.7670   -14.3210 ca         1 A1H      -0.101500
     29 C47        -17.8940    -9.8020   -13.8650 ca         1 A1H      -0.104500
     30 F19        -20.6050   -11.4950    -4.1450 f          1 A1H      -0.178000
     31 N11        -21.3090   -13.0970    -9.3240 nh         1 A1H      -0.534600
     32 N14        -23.2100   -14.2320    -9.9790 n2         1 A1H      -0.841100
     33 N27        -17.2540   -11.7140   -10.5750 n          1 A1H      -0.398800
     34 N9         -20.3000   -12.2820    -9.7730 n          1 A1H      -0.243200
     35 O23        -18.2640   -14.1560    -8.2930 os         1 A1H      -0.334100
     36 O30        -14.7390    -9.2040   -10.3130 os         1 A1H      -0.292100
     37 O39        -17.3070    -9.4440   -10.5230 o          1 A1H      -0.551100
     38 O7         -19.6370   -13.8710   -11.2310 o          1 A1H      -0.577100
     39 CL33       -14.0020    -6.7130   -11.4760 cl         1 A1H      -0.162000
     40 CL36        -9.2320    -7.5970    -9.1560 cl         1 A1H      -0.192000
     41 H10A       -20.8870   -10.9010    -8.3540 h1         1 A1H       0.052033
     42 H10B       -19.2370   -10.6750    -8.9050 h1         1 A1H       0.052033
     43 H10C       -20.5960   -10.1870    -9.9410 h1         1 A1H       0.052033
     44 H15A       -21.9880   -14.3190    -7.8220 h1         1 A1H       0.075700
     45 H15B       -20.5710   -14.9520    -8.6380 h1         1 A1H       0.075700
     46 H17        -21.8560   -12.6820    -6.0770 ha         1 A1H       0.139000
     47 H20        -18.0260   -11.7220    -4.4380 ha         1 A1H       0.131000
     48 H21        -16.9300   -12.8960    -6.2730 ha         1 A1H       0.117000
     49 H24B       -16.7990   -15.3140    -9.0100 h1         1 A1H       0.060200
     50 H24A       -16.4710   -14.7010    -7.3960 h1         1 A1H       0.060200
     51 H26B       -17.0780   -13.7570   -10.8430 h1         1 A1H       0.060200
     52 H26A       -15.5890   -12.9080   -11.0560 h1         1 A1H       0.060200
     53 H1         -22.4100   -12.5640   -10.9680 h5         1 A1H      -0.021200
     54 H25A       -15.0330   -13.6010    -8.9730 hc         1 A1H       0.053200
     55 H25B       -16.1380   -12.4130    -8.3410 hc         1 A1H       0.053200
     56 H29B       -14.6540   -11.2620   -10.3290 h1         1 A1H       0.052700
     57 H29A       -15.2200   -10.5470    -8.8140 h1         1 A1H       0.052700
     58 H34        -11.3170    -6.3540   -10.6540 ha         1 A1H       0.146000
     59 H37        -10.6720    -9.9430    -8.3970 ha         1 A1H       0.131000
     60 H38        -12.9510   -10.6570    -8.8540 ha         1 A1H       0.119000
     61 H40        -18.9190   -10.7640   -11.3120 h1         1 A1H       0.100700
     62 H41A       -19.1640   -12.1070   -13.3610 hc         1 A1H       0.065700
     63 H41B       -17.7480   -13.0540   -12.9480 hc         1 A1H       0.065700
     64 H43        -15.4940   -12.0810   -13.1780 ha         1 A1H       0.105000
     65 H44        -14.0680   -10.2390   -13.9570 ha         1 A1H       0.112500
     66 H45        -15.0830    -8.1010   -14.6910 ha         1 A1H       0.115000
     67 H46        -17.5460    -7.8410   -14.6540 ha         1 A1H       0.112500
     68 H47        -18.9710    -9.6740   -13.8360 ha         1 A1H       0.105000
     69 H3         -23.9430   -14.1710   -10.6740 hn         1 A1H       0.389400
@<TRIPOS>BOND
     1     1    22 1   
     2     1    34 1   
     3     1    38 2   
     4     2    34 1   
     5     2    41 1   
     6     2    42 1   
     7     2    43 1   
     8     3    12 1   
     9     3    31 1   
    10     3    44 1   
    11     3    45 1   
    12     4    12 ar  
    13     4    13 ar  
    14     4    46 1   
    15     5     6 ar  
    16     5    13 ar  
    17     5    47 1   
    18     6     7 ar  
    19     6    48 1   
    20     7    12 ar  
    21     7    35 1   
    22     8    14 1   
    23     8    35 1   
    24     8    49 1   
    25     8    50 1   
    26     9    14 1   
    27     9    33 1   
    28     9    51 1   
    29     9    52 1   
    30    10    15 1   
    31    10    33 1   
    32    10    37 2   
    33    11    31 1   
    34    11    32 2   
    35    11    53 1   
    36    13    30 1   
    37    14    54 1   
    38    14    55 1   
    39    15    36 1   
    40    15    56 1   
    41    15    57 1   
    42    16    17 ar  
    43    16    21 ar  
    44    16    36 1   
    45    17    18 ar  
    46    17    39 1   
    47    18    19 ar  
    48    18    58 1   
    49    19    20 ar  
    50    19    40 1   
    51    20    21 ar  
    52    20    59 1   
    53    21    60 1   
    54    22    23 1   
    55    22    33 1   
    56    22    61 1   
    57    23    24 1   
    58    23    62 1   
    59    23    63 1   
    60    24    25 ar  
    61    24    29 ar  
    62    25    26 ar  
    63    25    64 1   
    64    26    27 ar  
    65    26    65 1   
    66    27    28 ar  
    67    27    66 1   
    68    28    29 ar  
    69    28    67 1   
    70    29    68 1   
    71    31    34 1   
    72    32    69 1   
@<TRIPOS>SUBSTRUCTURE
     1 A1H         1 TEMP              0 ****  ****    0 ROOT
