@<TRIPOS>MOLECULE
A1H
   25    25     1     0     0
SMALL
abcg2


@<TRIPOS>ATOM
      1 C1         139.8340   211.2850   152.2270 c6         1 A1H       0.385300
      2 C2         139.2770   212.4410   153.0830 c6         1 A1H       0.121300
      3 C3         139.0260   213.6950   152.2220 c6         1 A1H       0.145300
      4 C4         138.6860   213.3170   150.7820 c6         1 A1H       0.150300
      5 C5         139.7970   212.4340   150.1840 c6         1 A1H       0.049300
      6 C6         140.7020   213.2020   149.1880 c          1 A1H       0.741000
      7 O2         138.0430   212.0750   153.6970 os         1 A1H      -0.599700
      8 O3         140.1530   214.5330   152.1610 oh         1 A1H      -0.630000
      9 O4         137.4710   212.5940   150.7400 oh         1 A1H      -0.721000
     10 O5         140.5820   211.8170   151.1830 os         1 A1H      -0.414000
     11 O6A        141.9300   213.1390   149.3430 o          1 A1H      -0.728000
     12 O6B        140.0740   213.7880   148.2840 o          1 A1H      -0.728000
     13 S          138.0820   211.3010   155.1440 s6         1 A1H       1.509300
     14 O1S        138.8650   210.0710   154.9100 o          1 A1H      -0.720200
     15 O2S        136.6640   211.0640   155.3760 o          1 A1H      -0.720200
     16 O3S        138.7230   212.2240   156.0790 o          1 A1H      -0.720200
     17 O1         140.7120   210.4670   152.9220 oh         1 A1H      -0.694000
     18 H1         138.9780   210.7070   151.8320 h2         1 A1H       0.026700
     19 H2         140.0190   212.7050   153.8490 h1         1 A1H       0.045700
     20 H3         138.1670   214.2280   152.6570 h1         1 A1H       0.015700
     21 H4         138.6000   214.2350   150.1920 h1         1 A1H       0.061700
     22 H5         139.2880   211.6520   149.5960 h1         1 A1H       0.024700
     23 HO3        140.3730   214.8250   153.0510 ho         1 A1H       0.421000
     24 HO4        136.7670   213.1600   151.0750 ho         1 A1H       0.480000
     25 HO1        140.2330   210.1570   153.7120 ho         1 A1H       0.498000
@<TRIPOS>BOND
     1     1     2 1   
     2     1    10 1   
     3     1    17 1   
     4     1    18 1   
     5     2     3 1   
     6     2     7 1   
     7     2    19 1   
     8     3     4 1   
     9     3     8 1   
    10     3    20 1   
    11     4     5 1   
    12     4     9 1   
    13     4    21 1   
    14     5     6 1   
    15     5    10 1   
    16     5    22 1   
    17     6    11 1   
    18     6    12 1   
    19     7    13 1   
    20     8    23 1   
    21     9    24 1   
    22    13    14 1   
    23    13    15 1   
    24    13    16 1   
    25    17    25 1   
@<TRIPOS>SUBSTRUCTURE
     1 A1H         1 TEMP              0 ****  ****    0 ROOT
