@<TRIPOS>MOLECULE
A1H
   37    39     1     0     0
SMALL
No Charge or Current Charge


@<TRIPOS>ATOM
      1 N1          20.8360     5.9700    18.4860 n1         1 A1H      -0.462000
      2 N3          15.0120     9.5060    12.7800 nc         1 A1H      -0.662000
      3 C4          17.7370     4.0220    18.0090 cp         1 A1H      -0.124000
      4 C5          17.7900     2.9640    17.0690 ca         1 A1H      -0.034500
      5 C6          18.0670     1.6490    17.4830 ca         1 A1H      -0.178500
      6 C7          18.2950     1.3720    18.8380 ca         1 A1H       0.163100
      7 C8          18.2470     2.4070    19.7840 ca         1 A1H      -0.178500
      8 C10         16.1660     5.7910    17.0730 ca         1 A1H      -0.138000
      9 C13         14.6400     9.3030    15.2500 c3         1 A1H       0.023300
     10 C15         16.0840     9.3870    11.9370 cc         1 A1H       0.232900
     11 C           18.0720     7.7170    17.2090 ca         1 A1H       0.700900
     12 O           18.5630     0.0940    19.2270 oh         1 A1H      -0.526100
     13 C1          18.4250     6.4370    17.6360 ca         1 A1H      -0.181000
     14 C11         15.0990     4.8380    16.9900 cg         1 A1H       0.336000
     15 C12         15.9430     7.1220    16.6700 ca         1 A1H       0.563300
     16 C14         15.4800     9.2670    13.9960 cd         1 A1H       0.388800
     17 C16         17.2250     9.0770    12.6270 cd         1 A1H      -0.226000
     18 C2          19.7550     6.1750    18.0990 cg         1 A1H       0.337000
     19 C3          17.4420     5.4220    17.5710 cp         1 A1H       0.163000
     20 C9          17.9700     3.7220    19.3730 ca         1 A1H      -0.034500
     21 N2          14.2390     4.0530    16.9260 n1         1 A1H      -0.439000
     22 N4          16.8310     9.0040    13.9540 na         1 A1H      -0.284500
     23 N5          16.8950     8.0730    16.7420 nb         1 A1H      -0.827000
     24 S           14.3390     7.6470    16.0450 ss         1 A1H      -0.289300
     25 H2          17.6180     3.1680    16.0140 ha         1 A1H       0.122500
     26 H3          18.1050     0.8470    16.7510 ha         1 A1H       0.127500
     27 H5          18.4220     2.2010    20.8380 ha         1 A1H       0.127500
     28 H8          15.1200     9.9680    15.9780 h1         1 A1H       0.100700
     29 H7          13.6680     9.7420    14.9990 h1         1 A1H       0.100700
     30 H9          15.9630     9.5350    10.8710 h4         1 A1H       0.040100
     31 H           18.3220     9.6500    17.1300 hn         1 A1H       0.508000
     32 H1          19.6330     8.8080    17.8340 hn         1 A1H       0.508000
     33 H4          18.6940     0.0870    20.1990 ho         1 A1H       0.470000
     34 H10         18.2400     8.9100    12.2820 h4         1 A1H       0.157000
     35 H6          17.9320     4.5180    20.1150 ha         1 A1H       0.122500
     36 H11         17.3960     8.7800    14.7690 hn         1 A1H       0.362000
     37 N           18.8540     8.7920    17.1860 nv         1 A1H      -1.069900
@<TRIPOS>BOND
     1     1    18 3   
     2     2    10 1   
     3     2    16 2   
     4     3     4 ar  
     5     3    19 1   
     6     3    20 ar  
     7     4     5 ar  
     8     4    25 1   
     9     5     6 ar  
    10     5    26 1   
    11     6     7 ar  
    12     6    12 1   
    13     7    20 ar  
    14     7    27 1   
    15     8    14 1   
    16     8    15 ar  
    17     8    19 ar  
    18     9    16 1   
    19     9    24 1   
    20     9    28 1   
    21     9    29 1   
    22    10    17 2   
    23    10    30 1   
    24    11    13 ar  
    25    11    23 ar  
    26    11    37 1   
    27    12    33 1   
    28    13    18 1   
    29    13    19 ar  
    30    14    21 3   
    31    15    23 ar  
    32    15    24 1   
    33    16    22 1   
    34    17    22 1   
    35    17    34 1   
    36    20    35 1   
    37    22    36 1   
    38    31    37 1   
    39    32    37 1   
@<TRIPOS>SUBSTRUCTURE
     1 A1H         1 TEMP              0 ****  ****    0 ROOT
