@<TRIPOS>MOLECULE
A1H
   55    58     1     0     0
SMALL
No Charge or Current Charge


@<TRIPOS>ATOM
      1 C1          84.3990    89.8080    74.7480 cc         1 A1H      -0.113300
      2 C2          85.4410    90.3420    73.9620 cc         1 A1H      -0.047000
      3 C3          84.8560    91.1220    73.0040 cd         1 A1H      -0.104100
      4 O4          87.0870    91.7210    71.5880 o          1 A1H      -0.524000
      5 C7          79.7560    89.3750    71.8470 c6         1 A1H      -0.087900
      6 C8          78.3440    89.4730    72.4760 c6         1 A1H      -0.139700
      7 C9          78.3940    89.4980    74.0240 c6         1 A1H      -0.087900
      8 C10         79.3720    90.5900    74.5170 c6         1 A1H       0.099000
      9 C11         77.4500    90.5700    71.8490 c          1 A1H       0.595100
     10 C12         75.3650    90.9990    70.5140 c3         1 A1H       0.095300
     11 C13         84.4700    89.8930    70.3160 ca         1 A1H       0.298000
     12 C14         85.1440    88.8210    70.9410 ca         1 A1H      -0.124000
     13 C15         84.5960    87.5170    70.9400 ca         1 A1H      -0.101000
     14 C16         83.3710    87.2550    70.2970 ca         1 A1H       0.152000
     15 C19         81.3020    89.7360    68.4460 cc         1 A1H      -0.141100
     16 C20         81.5000    88.4400    68.8870 cd         1 A1H       0.031800
     17 N           80.7290    90.4330    73.9180 n          1 A1H      -0.397800
     18 C           84.6230    88.8840    75.9170 c3         1 A1H      -0.025800
     19 O           83.4850    91.1410    73.1330 os         1 A1H      -0.177000
     20 C17         82.7280    88.3290    69.6500 ca         1 A1H      -0.070800
     21 C18         83.2590    89.5990    69.6540 ca         1 A1H      -0.066200
     22 C4          83.2290    90.2880    74.1910 cd         1 A1H       0.118500
     23 C5          81.8370    90.0290    74.7140 c          1 A1H       0.536600
     24 C6          80.7220    90.4440    72.4210 c6         1 A1H       0.099000
     25 N1          76.3330    90.1240    71.1790 ns         1 A1H      -0.509900
     26 N2          84.9840    91.1880    70.3440 nu         1 A1H      -0.952100
     27 N3          82.4140    90.4500    68.9390 na         1 A1H      -0.205700
     28 O1          81.6400    89.5090    75.8080 o          1 A1H      -0.574100
     29 O2          77.7130    91.7610    71.9350 o          1 A1H      -0.606100
     30 O3          85.0920    93.3500    71.4910 o          1 A1H      -0.524000
     31 S           85.6510    92.0070    71.6550 sy         1 A1H       1.168200
     32 Cl          80.4080    87.1280    68.5790 cl         1 A1H      -0.150000
     33 Cl1         82.7210    85.6190    70.3260 cl         1 A1H      -0.180000
     34 H1          86.5030    90.1510    74.0940 ha         1 A1H       0.165000
     35 H2          79.6880    89.4740    70.7560 hc         1 A1H       0.058700
     36 H3          80.1760    88.3790    72.0440 hc         1 A1H       0.058700
     37 H4          77.8450    88.5280    72.2180 hc         1 A1H       0.065700
     38 H5          77.3920    89.6660    74.4420 hc         1 A1H       0.058700
     39 H6          78.7330    88.5220    74.3990 hc         1 A1H       0.058700
     40 H7          79.4240    90.5640    75.6140 h1         1 A1H       0.065950
     41 H8          78.9810    91.5820    74.2490 h1         1 A1H       0.065950
     42 H9          74.5730    90.3900    70.0590 h1         1 A1H       0.039033
     43 H10         74.9190    91.6820    71.2490 h1         1 A1H       0.039033
     44 H11         75.8690    91.5810    69.7320 h1         1 A1H       0.039033
     45 H12         86.0970    88.9940    71.4320 ha         1 A1H       0.144000
     46 H13         85.1250    86.7080    71.4370 ha         1 A1H       0.137000
     47 H14         80.5050    90.1810    67.8570 h4         1 A1H       0.233000
     48 H15         84.3080    89.3570    76.8550 hc         1 A1H       0.053367
     49 H16         84.0550    87.9550    75.7960 hc         1 A1H       0.053367
     50 H17         85.6820    88.6170    76.0160 hc         1 A1H       0.053367
     51 H18         81.7090    90.2230    72.0040 h1         1 A1H       0.065950
     52 H19         80.4290    91.4440    72.0690 h1         1 A1H       0.065950
     53 H20         76.1830    89.1220    71.1500 hn         1 A1H       0.320500
     54 H21         84.4230    91.9020    69.9060 hn         1 A1H       0.517000
     55 H22         82.5800    91.4370    68.7720 hn         1 A1H       0.362000
@<TRIPOS>BOND
     1     1     2 1   
     2     1    18 1   
     3     1    22 2   
     4     2     3 2   
     5     2    34 1   
     6     3    19 1   
     7     3    31 1   
     8     4    31 2   
     9     5     6 1   
    10     5    24 1   
    11     5    35 1   
    12     5    36 1   
    13     6     7 1   
    14     6     9 1   
    15     6    37 1   
    16     7     8 1   
    17     7    38 1   
    18     7    39 1   
    19     8    17 1   
    20     8    40 1   
    21     8    41 1   
    22     9    25 1   
    23     9    29 2   
    24    10    25 1   
    25    10    42 1   
    26    10    43 1   
    27    10    44 1   
    28    11    12 ar  
    29    11    21 ar  
    30    11    26 1   
    31    12    13 ar  
    32    12    45 1   
    33    13    14 ar  
    34    13    46 1   
    35    14    20 ar  
    36    14    33 1   
    37    15    16 2   
    38    15    27 1   
    39    15    47 1   
    40    16    20 1   
    41    16    32 1   
    42    17    23 1   
    43    17    24 1   
    44    18    48 1   
    45    18    49 1   
    46    18    50 1   
    47    19    22 1   
    48    20    21 ar  
    49    21    27 1   
    50    22    23 1   
    51    23    28 2   
    52    24    51 1   
    53    24    52 1   
    54    25    53 1   
    55    26    31 1   
    56    26    54 1   
    57    27    55 1   
    58    30    31 2   
@<TRIPOS>SUBSTRUCTURE
     1 A1H         1 TEMP              0 ****  ****    0 ROOT
