@<TRIPOS>MOLECULE
A1H
   57    61     1     0     0
SMALL
abcg2


@<TRIPOS>ATOM
      1 N1          -1.7980   -16.2040    26.4130 nc         1 A1H      -0.513100
      2 N3          -3.9230   -15.4330    30.3150 nb         1 A1H      -0.312000
      3 C4           6.0080   -11.5230    26.0810 ca         1 A1H      -0.092000
      4 C5           4.6470   -11.3080    25.9080 ca         1 A1H      -0.132500
      5 C6           3.7610   -11.7290    26.8890 ca         1 A1H       0.109100
      6 C7           1.4980   -12.4170    26.8760 ca         1 A1H       0.137100
      7 C8           1.7440   -13.7580    26.6000 ca         1 A1H      -0.155000
      8 C10          0.2360   -12.0110    27.2900 ca         1 A1H      -0.155000
      9 C13         -1.6090   -15.2920    27.3370 cd         1 A1H       0.440500
     10 C15         -2.8800   -14.9270    29.6520 ca         1 A1H       0.457900
     11 C17         -3.3360   -16.5540    27.9760 ca         1 A1H       0.159500
     12 C20         -3.2480   -19.4050    26.6170 c6         1 A1H      -0.091400
     13 C21         -3.7760   -20.4790    25.6710 c6         1 A1H      -0.094400
     14 C22         -5.1500   -20.0960    25.1400 c6         1 A1H       0.104000
     15 C24         -5.6380   -19.6830    22.2870 ce         1 A1H      -0.295200
     16 C1           4.2210   -12.3630    28.0380 ca         1 A1H      -0.132500
     17 C2           5.5820   -12.5810    28.1920 ca         1 A1H      -0.092000
     18 C3           6.4800   -12.1640    27.2180 ca         1 A1H      -0.121000
     19 O1           2.4330   -11.4420    26.7130 os         1 A1H      -0.253200
     20 C9           0.7290   -14.6850    26.7620 ca         1 A1H      -0.067000
     21 C11         -0.7740   -12.9470    27.4360 ca         1 A1H      -0.067000
     22 C12         -0.5400   -14.2990    27.1920 ca         1 A1H      -0.128900
     23 C14         -2.5610   -15.4630    28.3810 ca         1 A1H      -0.382900
     24 N2          -2.1960   -13.9380    30.2280 nv         1 A1H      -1.066900
     25 C16         -4.5970   -16.4470    29.7790 ca         1 A1H       0.196900
     26 N4          -4.3710   -17.0740    28.6430 nb         1 A1H      -0.238000
     27 N5          -2.8320   -16.9710    26.7970 na         1 A1H      -0.019100
     28 C18         -3.2920   -18.0410    25.9330 c6         1 A1H       0.091300
     29 C19         -4.6910   -17.7330    25.3870 c6         1 A1H       0.074000
     30 N6          -5.0960   -18.7960    24.4900 n          1 A1H      -0.410800
     31 C23         -5.3660   -18.5290    23.1910 c          1 A1H       0.610300
     32 O2          -5.3880   -17.3850    22.7520 o          1 A1H      -0.602100
     33 C25         -6.2960   -19.5090    21.1460 c2         1 A1H      -0.237000
     34 H5           4.2750   -10.8140    25.0200 ha         1 A1H       0.127500
     35 H6           2.7190   -14.0880    26.2640 ha         1 A1H       0.131500
     36 H8           0.0430   -10.9640    27.4860 ha         1 A1H       0.131500
     37 H19         -2.2250   -19.6300    26.9250 hc         1 A1H       0.062700
     38 H18         -3.8640   -19.3840    27.5180 hc         1 A1H       0.062700
     39 H21         -3.0880   -20.6200    24.8320 hc         1 A1H       0.051200
     40 H20         -3.8430   -21.4340    26.1950 hc         1 A1H       0.051200
     41 H23         -5.5380   -20.8540    24.4670 h1         1 A1H       0.052700
     42 H22         -5.8590   -20.0280    25.9720 h1         1 A1H       0.052700
     43 H24         -5.2760   -20.6700    22.5420 ha         1 A1H       0.179000
     44 H1           3.5270   -12.6810    28.8060 ha         1 A1H       0.127500
     45 H2           5.9400   -13.0750    29.0860 ha         1 A1H       0.116500
     46 H3           7.5410   -12.3350    27.3470 ha         1 A1H       0.117000
     47 H7           0.9320   -15.7280    26.5580 ha         1 A1H       0.126000
     48 H9          -1.7610   -12.6100    27.7310 ha         1 A1H       0.126000
     49 H11         -2.4300   -13.6650    31.1690 hn         1 A1H       0.502500
     50 H12         -1.3200   -13.6140    29.8560 hn         1 A1H       0.502500
     51 H13         -5.4370   -16.8070    30.3640 h5         1 A1H       0.045100
     52 H15         -2.5980   -18.0420    25.0900 h1         1 A1H       0.087700
     53 H16         -5.4090   -17.6590    26.2100 h1         1 A1H       0.079700
     54 H17         -4.6880   -16.7840    24.8580 h1         1 A1H       0.079700
     55 H26         -6.4810   -20.3390    20.4780 ha         1 A1H       0.175000
     56 H25         -6.6770   -18.5420    20.8430 ha         1 A1H       0.175000
     57 H4           6.6990   -11.1930    25.3170 ha         1 A1H       0.116500
@<TRIPOS>BOND
     1     1     9 2   
     2     1    27 1   
     3     2    10 ar  
     4     2    25 ar  
     5     3     4 ar  
     6     3    18 ar  
     7     3    57 1   
     8     4     5 ar  
     9     4    34 1   
    10     5    16 ar  
    11     5    19 1   
    12     6     7 ar  
    13     6     8 ar  
    14     6    19 1   
    15     7    20 ar  
    16     7    35 1   
    17     8    21 ar  
    18     8    36 1   
    19     9    22 1   
    20     9    23 1   
    21    10    23 ar  
    22    10    24 1   
    23    11    23 ar  
    24    11    26 ar  
    25    11    27 1   
    26    12    13 1   
    27    12    28 1   
    28    12    37 1   
    29    12    38 1   
    30    13    14 1   
    31    13    39 1   
    32    13    40 1   
    33    14    30 1   
    34    14    41 1   
    35    14    42 1   
    36    15    31 1   
    37    15    33 2   
    38    15    43 1   
    39    16    17 ar  
    40    16    44 1   
    41    17    18 ar  
    42    17    45 1   
    43    18    46 1   
    44    20    22 ar  
    45    20    47 1   
    46    21    22 ar  
    47    21    48 1   
    48    24    49 1   
    49    24    50 1   
    50    25    26 ar  
    51    25    51 1   
    52    27    28 1   
    53    28    29 1   
    54    28    52 1   
    55    29    30 1   
    56    29    53 1   
    57    29    54 1   
    58    30    31 1   
    59    31    32 2   
    60    33    55 1   
    61    33    56 1   
@<TRIPOS>SUBSTRUCTURE
     1 A1H         1 TEMP              0 ****  ****    0 ROOT
