@<TRIPOS>MOLECULE
A1H
   25    25     1     0     0
SMALL
No Charge or Current Charge


@<TRIPOS>ATOM
      1 C4         218.8700   214.2250   207.2930 c6         1 A1H       0.155300
      2 C5         219.5190   213.4330   206.1180 c6         1 A1H       0.031300
      3 C6         220.9600   212.9530   206.5100 c          1 A1H       0.746000
      4 C1         218.1340   214.6010   204.4510 c6         1 A1H       0.399300
      5 C2         217.4320   215.4540   205.5750 c6         1 A1H       0.085300
      6 C3         217.3990   214.6240   206.9090 c6         1 A1H       0.148300
      7 O2         218.1030   216.7270   205.7870 oh         1 A1H      -0.704000
      8 O3         216.5930   213.4340   206.7130 os         1 A1H      -0.597700
      9 O22        216.2930   212.9420   209.1040 o          1 A1H      -0.717200
     10 O23        214.9570   211.7460   207.4030 o          1 A1H      -0.717200
     11 O24        214.5330   214.1380   207.8520 o          1 A1H      -0.717200
     12 O4         219.6220   215.4150   207.5850 oh         1 A1H      -0.686000
     13 O6A        221.9070   213.4980   205.9510 o          1 A1H      -0.732500
     14 O6B        221.0530   211.7680   206.8100 o          1 A1H      -0.732500
     15 O5         219.4610   214.2180   204.8740 os         1 A1H      -0.426000
     16 S1         215.4970   213.0290   207.8720 s6         1 A1H       1.502300
     17 H4         218.8400   213.5740   208.1800 h1         1 A1H       0.063700
     18 H2         218.9400   212.5110   205.9690 h1         1 A1H       0.043700
     19 H1         218.2110   215.2050   203.5330 h2         1 A1H       0.067700
     20 H6         216.3920   215.6400   205.2670 h1         1 A1H       0.049700
     21 H3         216.9610   215.2460   207.7030 h1         1 A1H       0.025700
     22 HO2        217.8300   217.3300   205.0540 ho         1 A1H       0.482000
     23 HO4        219.2530   216.0770   206.9380 ho         1 A1H       0.459000
     24 O1         217.3960   213.4130   204.1750 oh         1 A1H      -0.706000
     25 HO1        217.0290   213.1810   205.0680 ho         1 A1H       0.477000
@<TRIPOS>BOND
     1     1     2 1   
     2     1     6 1   
     3     1    12 1   
     4     1    17 1   
     5     2     3 1   
     6     2    15 1   
     7     2    18 1   
     8     3    13 1   
     9     3    14 1   
    10     4     5 1   
    11     4    15 1   
    12     4    19 1   
    13     4    24 1   
    14     5     6 1   
    15     5     7 1   
    16     5    20 1   
    17     6     8 1   
    18     6    21 1   
    19     7    22 1   
    20     8    16 1   
    21     9    16 1   
    22    10    16 1   
    23    11    16 1   
    24    12    23 1   
    25    24    25 1   
@<TRIPOS>SUBSTRUCTURE
     1 A1H         1 TEMP              0 ****  ****    0 ROOT
