@<TRIPOS>MOLECULE
A1H
   37    39     1     0     0
SMALL
abcg2


@<TRIPOS>ATOM
      1 N1          20.7390     5.9230    18.7300 n1         1 A1H      -0.462000
      2 N3          14.8270     9.6500    12.8180 nc         1 A1H      -0.662000
      3 C4          17.7380     3.9590    18.0670 cp         1 A1H      -0.124000
      4 C5          17.6910     2.8450    17.2290 ca         1 A1H      -0.034500
      5 C6          17.9250     1.5760    17.7240 ca         1 A1H      -0.178500
      6 C7          18.2000     1.3960    19.0800 ca         1 A1H       0.163100
      7 C8          18.2420     2.5030    19.9250 ca         1 A1H      -0.178500
      8 C10         16.2900     5.6110    16.8830 ca         1 A1H      -0.138000
      9 C13         14.7070     9.0420    15.2200 c3         1 A1H       0.023300
     10 C15         15.8410     9.8630    11.9290 cc         1 A1H       0.232900
     11 C           18.1610     7.6070    17.1240 ca         1 A1H       0.700900
     12 O           18.4140     0.1430    19.5090 oh         1 A1H      -0.526100
     13 C1          18.4380     6.3170    17.6570 ca         1 A1H      -0.181000
     14 C11         15.2450     4.6570    16.7910 cg         1 A1H       0.336000
     15 C12         16.1080     6.9140    16.3720 ca         1 A1H       0.563300
     16 C14         15.4110     9.3570    13.9560 cd         1 A1H       0.388800
     17 C16         17.0510     9.6940    12.5410 cd         1 A1H      -0.226000
     18 C2          19.6970     6.0710    18.2580 cg         1 A1H       0.337000
     19 C3          17.4900     5.3070    17.5320 cp         1 A1H       0.163000
     20 C9          18.0200     3.7710    19.4180 ca         1 A1H      -0.034500
     21 N2          14.3750     3.9040    16.7120 n1         1 A1H      -0.439000
     22 N4          16.7540     9.3740    13.8320 na         1 A1H      -0.284500
     23 N5          17.0120     7.8560    16.4840 nb         1 A1H      -0.827000
     24 S           14.5920     7.2570    15.5760 ss         1 A1H      -0.289300
     25 H2          17.4910     2.9680    16.1720 ha         1 A1H       0.122500
     26 H3          17.9000     0.7210    17.0610 ha         1 A1H       0.127500
     27 H5          18.4460     2.3780    20.9820 ha         1 A1H       0.127500
     28 H8          15.1470     9.5370    16.0850 h1         1 A1H       0.100700
     29 H7          13.6680     9.3610    15.1380 h1         1 A1H       0.100700
     30 H9          15.6510    10.1280    10.9000 h4         1 A1H       0.040100
     31 H           18.7900     9.5080    16.8300 hn         1 A1H       0.508000
     32 H1          19.9130     8.5240    17.6850 hn         1 A1H       0.508000
     33 H4          18.6040     0.1320    20.4550 ho         1 A1H       0.470000
     34 H10         18.0630     9.7750    12.1830 h4         1 A1H       0.157000
     35 H6          18.0440     4.6180    20.0920 ha         1 A1H       0.122500
     36 H11         17.4060     9.1680    14.5730 hn         1 A1H       0.362000
     37 N           19.0260     8.6090    17.2180 nv         1 A1H      -1.069900
@<TRIPOS>BOND
     1     1    18 3   
     2     2    10 1   
     3     2    16 2   
     4     3     4 ar  
     5     3    19 1   
     6     3    20 ar  
     7     4     5 ar  
     8     4    25 1   
     9     5     6 ar  
    10     5    26 1   
    11     6     7 ar  
    12     6    12 1   
    13     7    20 ar  
    14     7    27 1   
    15     8    14 1   
    16     8    15 ar  
    17     8    19 ar  
    18     9    16 1   
    19     9    24 1   
    20     9    28 1   
    21     9    29 1   
    22    10    17 2   
    23    10    30 1   
    24    11    13 ar  
    25    11    23 ar  
    26    11    37 1   
    27    12    33 1   
    28    13    18 1   
    29    13    19 ar  
    30    14    21 3   
    31    15    23 ar  
    32    15    24 1   
    33    16    22 1   
    34    17    22 1   
    35    17    34 1   
    36    20    35 1   
    37    22    36 1   
    38    31    37 1   
    39    32    37 1   
@<TRIPOS>SUBSTRUCTURE
     1 A1H         1 TEMP              0 ****  ****    0 ROOT
