@<TRIPOS>MOLECULE
A1H
   73    75     1     0     0
SMALL
abcg2


@<TRIPOS>ATOM
      1 N1           6.8300    -1.8710    21.0600 nh         1 A1H      -0.555600
      2 N3           9.7730     0.6810    22.6970 ns         1 A1H      -0.492900
      3 C4           4.9170    -0.3830    21.5000 ca         1 A1H      -0.102300
      4 C5           4.3280    -0.4320    20.2380 ca         1 A1H      -0.091000
      5 C6           3.5350     0.6070    19.7800 ca         1 A1H      -0.108000
      6 C7           3.3270     1.7100    20.5970 ca         1 A1H       0.122000
      7 C8           3.8950     1.7820    21.8570 ca         1 A1H      -0.108000
      8 C10          7.9730     0.0450    20.1930 c3         1 A1H       0.100300
      9 C13         11.2930    -1.2430    22.8520 c3         1 A1H      -0.040100
     10 C15         12.6740     0.4480    24.1040 ca         1 A1H      -0.101500
     11 C17         14.6110     1.4800    23.1200 ca         1 A1H      -0.107000
     12 C20         10.1920     1.8840    22.2560 c          1 A1H       0.592100
     13 C21          9.9610     3.0520    23.2160 c3         1 A1H       0.038700
     14 C22          8.6360     3.8200    22.9620 c3         1 A1H      -0.046000
     15 C24          8.5610     4.9760    23.9610 c3         1 A1H      -0.088767
     16 C28         13.6540     5.4560    22.7340 cc         1 A1H      -0.091000
     17 O           11.6400     3.8860    25.3380 o          1 A1H      -0.618100
     18 C11          8.9330    -1.4750    21.9660 c          1 A1H       0.588100
     19 C12         10.1580    -0.5660    22.0730 c3         1 A1H       0.031700
     20 C14         12.4790    -0.3260    22.9630 ca         1 A1H      -0.095300
     21 C16         13.7350     1.3410    24.1870 ca         1 A1H      -0.107000
     22 C18         14.4290     0.7100    21.9780 ca         1 A1H      -0.107000
     23 C19         13.3730    -0.1860    21.9040 ca         1 A1H      -0.101500
     24 C2           6.8410    -3.0330    20.3430 c2         1 A1H       0.655100
     25 C23          8.5500     4.3780    21.5420 c3         1 A1H      -0.088767
     26 C25          7.4540     2.8830    23.2150 c3         1 A1H      -0.088767
     27 C27         13.1510     4.9270    23.8900 cd         1 A1H      -0.307600
     28 C29         14.9110     6.0800    22.9240 cc         1 A1H      -0.143000
     29 C3           5.7780    -1.5200    21.9880 c3         1 A1H       0.278100
     30 C30         15.3350     6.0070    24.2190 cd         1 A1H      -0.255000
     31 C9           4.6880     0.7300    22.2990 ca         1 A1H      -0.091000
     32 N2           7.9740    -1.1170    21.0640 n          1 A1H      -0.244200
     33 N4          11.1310     3.8930    23.1260 ns         1 A1H      -0.478900
     34 N5           5.8650    -3.8440    20.3320 n2         1 A1H      -0.852100
     35 O1          10.7300     2.0530    21.1740 o          1 A1H      -0.603100
     36 O2           8.8150    -2.4670    22.6570 o          1 A1H      -0.570100
     37 S1          14.2150     5.1920    25.2150 ss         1 A1H       0.314000
     38 CL           2.3400     3.0180    20.0280 cl         1 A1H      -0.205000
     39 H23          9.4200     0.6230    23.6420 hn         1 A1H       0.320500
     40 H9           4.4840    -1.2920    19.5980 ha         1 A1H       0.122500
     41 H10          3.0830     0.5580    18.7990 ha         1 A1H       0.129000
     42 H11          3.7340     2.6440    22.4890 ha         1 A1H       0.129000
     43 H13          8.9810     0.3950    19.9960 h1         1 A1H       0.052367
     44 H15          7.5300    -0.2390    19.2410 h1         1 A1H       0.052367
     45 H14          7.3960     0.8690    20.6130 h1         1 A1H       0.052367
     46 H16         10.9420    -1.5250    23.8460 hc         1 A1H       0.068700
     47 H17         11.5720    -2.1630    22.3330 hc         1 A1H       0.068700
     48 H18         11.9920     0.3480    24.9410 ha         1 A1H       0.110000
     49 H20         15.4320     2.1840    23.1800 ha         1 A1H       0.114000
     50 H1           9.9200     2.6690    24.2380 h1         1 A1H       0.087700
     51 H29          8.6230     4.6210    24.9910 hc         1 A1H       0.039922
     52 H28          9.3590     5.7020    23.8030 hc         1 A1H       0.039922
     53 H27          7.6120     5.5030    23.8500 hc         1 A1H       0.039922
     54 H           10.5270    -0.3350    21.0730 h1         1 A1H       0.097700
     55 H19         13.8720     1.9330    25.0820 ha         1 A1H       0.117500
     56 H21         15.1110     0.8090    21.1430 ha         1 A1H       0.117500
     57 H22         13.2360    -0.7800    21.0070 ha         1 A1H       0.110000
     58 H2           7.7690    -3.1570    19.7820 h5         1 A1H      -0.018200
     59 H25          7.6420     4.9750    21.4420 hc         1 A1H       0.039922
     60 H26          9.3920     5.0300    21.3030 hc         1 A1H       0.039922
     61 H24          8.5030     3.5910    20.7890 hc         1 A1H       0.039922
     62 H31          7.4950     2.4480    24.2170 hc         1 A1H       0.039922
     63 H30          6.5170     3.4370    23.1360 hc         1 A1H       0.039922
     64 H32          7.4040     2.0650    22.4970 hc         1 A1H       0.039922
     65 H35         15.4730     6.5590    22.1360 ha         1 A1H       0.137000
     66 H8           5.1700    -2.4130    22.1360 h1         1 A1H       0.076200
     67 H7           6.2170    -1.2700    22.9560 h1         1 A1H       0.076200
     68 H36         16.2520     6.3980    24.6340 h4         1 A1H       0.152000
     69 H12          5.1390     0.7880    23.2820 ha         1 A1H       0.122500
     70 H33         11.4630     4.1030    22.1980 hn         1 A1H       0.336500
     71 H37          6.0820    -4.6290    19.7300 hn         1 A1H       0.393400
     72 C26         11.9080     4.1890    24.1820 c          1 A1H       0.647700
     73 H34         13.1550     5.4180    21.7750 ha         1 A1H       0.134000
@<TRIPOS>BOND
     1     1    24 1   
     2     1    29 1   
     3     1    32 1   
     4     2    12 1   
     5     2    19 1   
     6     2    39 1   
     7     3     4 ar  
     8     3    29 1   
     9     3    31 ar  
    10     4     5 ar  
    11     4    40 1   
    12     5     6 ar  
    13     5    41 1   
    14     6     7 ar  
    15     6    38 1   
    16     7    31 ar  
    17     7    42 1   
    18     8    32 1   
    19     8    43 1   
    20     8    44 1   
    21     8    45 1   
    22     9    19 1   
    23     9    20 1   
    24     9    46 1   
    25     9    47 1   
    26    10    20 ar  
    27    10    21 ar  
    28    10    48 1   
    29    11    21 ar  
    30    11    22 ar  
    31    11    49 1   
    32    12    13 1   
    33    12    35 2   
    34    13    14 1   
    35    13    33 1   
    36    13    50 1   
    37    14    15 1   
    38    14    25 1   
    39    14    26 1   
    40    15    51 1   
    41    15    52 1   
    42    15    53 1   
    43    16    27 2   
    44    16    28 1   
    45    16    73 1   
    46    17    72 2   
    47    18    19 1   
    48    18    32 1   
    49    18    36 2   
    50    19    54 1   
    51    20    23 ar  
    52    21    55 1   
    53    22    23 ar  
    54    22    56 1   
    55    23    57 1   
    56    24    34 2   
    57    24    58 1   
    58    25    59 1   
    59    25    60 1   
    60    25    61 1   
    61    26    62 1   
    62    26    63 1   
    63    26    64 1   
    64    27    37 1   
    65    27    72 1   
    66    28    30 2   
    67    28    65 1   
    68    29    66 1   
    69    29    67 1   
    70    30    37 1   
    71    30    68 1   
    72    31    69 1   
    73    33    70 1   
    74    33    72 1   
    75    34    71 1   
@<TRIPOS>SUBSTRUCTURE
     1 A1H         1 TEMP              0 ****  ****    0 ROOT
