@<TRIPOS>MOLECULE
A1H
   61    63     1     0     0
SMALL
abcg2


@<TRIPOS>ATOM
      1 N1           7.8520    -0.8730    20.3980 n          1 A1H      -0.255200
      2 C4          12.8630     0.1010    22.7800 ca         1 A1H      -0.100000
      3 C5          13.8660     0.9950    23.1280 ca         1 A1H      -0.104500
      4 C6          13.6650     1.9000    24.1620 ca         1 A1H      -0.103000
      5 C7          12.4580     1.9010    24.8470 ca         1 A1H      -0.104500
      6 C8          11.4570     1.0050    24.4950 ca         1 A1H      -0.100000
      7 C10          8.0910     0.2560    19.5150 c3         1 A1H       0.111300
      8 C13          5.5930     0.6990    22.1740 ca         1 A1H       0.187000
      9 C15          4.7470     2.7440    21.2550 ca         1 A1H      -0.074000
     10 C17          4.6230     0.6920    20.0070 ca         1 A1H      -0.069000
     11 C22          9.5100     4.5380    22.0150 c3         1 A1H       0.231900
     12 C24         10.7490     5.1480    24.1080 ca         1 A1H      -0.077500
     13 C26         13.0910     5.6960    24.0810 ca         1 A1H      -0.099000
     14 C28         11.9640     5.1030    22.0400 ca         1 A1H      -0.077500
     15 N            9.1630     1.0240    22.2230 ns         1 A1H      -0.495900
     16 C            9.6850     2.1900    21.7760 c          1 A1H       0.641100
     17 O           10.5460     2.2930    20.9300 o          1 A1H      -0.540000
     18 C1           9.7240    -0.2620    21.8910 c3         1 A1H       0.052700
     19 C11          5.5520    -1.4700    20.8910 c3         1 A1H       0.268100
     20 C12          5.2420    -0.0090    21.0380 ca         1 A1H      -0.122300
     21 C14          5.3590     2.0610    22.2920 ca         1 A1H       0.065000
     22 C16          4.3780     2.0520    20.1100 ca         1 A1H      -0.124000
     23 C18          7.0140    -2.8640    19.5050 c2         1 A1H       0.635100
     24 C2          10.5450    -0.8410    23.0510 c3         1 A1H      -0.043100
     25 C23         10.7690     4.9350    22.7310 ca         1 A1H      -0.130300
     26 C25         11.9020     5.5250    24.7800 ca         1 A1H      -0.119000
     27 C27         13.1190     5.4870    22.7090 ca         1 A1H      -0.119000
     28 C3          11.6450     0.0970    23.4570 ca         1 A1H      -0.091300
     29 C9           8.6000    -1.2220    21.4850 c          1 A1H       0.584100
     30 N2           6.7630    -1.6580    20.1060 nh         1 A1H      -0.529600
     31 N4           6.1470    -3.7870    19.4530 n2         1 A1H      -0.838100
     32 O3           8.3750    -2.2420    22.1050 o          1 A1H      -0.571100
     33 O4           9.0830     3.2210    22.3730 os         1 A1H      -0.450100
     34 CL           5.8300     2.8750    23.7350 cl         1 A1H      -0.170000
     35 H4          13.0270    -0.6040    21.9730 ha         1 A1H       0.109000
     36 H5          14.8070     0.9840    22.5920 ha         1 A1H       0.111500
     37 H6          14.4440     2.6010    24.4330 ha         1 A1H       0.111000
     38 H7          12.2940     2.6020    25.6550 ha         1 A1H       0.111500
     39 H8          10.5210     1.0070    25.0410 ha         1 A1H       0.109000
     40 H11          9.1510     0.4860    19.4500 h1         1 A1H       0.050033
     41 H10          7.7540    -0.0180    18.5190 h1         1 A1H       0.050033
     42 H9           7.5550     1.1510    19.8320 h1         1 A1H       0.050033
     43 H14          4.5600     3.8050    21.3450 ha         1 A1H       0.132000
     44 H16          4.3360     0.1580    19.1100 ha         1 A1H       0.128000
     45 H25          9.6290     4.6270    20.9340 h1         1 A1H       0.065700
     46 H24          8.6810     5.1790    22.3150 h1         1 A1H       0.065700
     47 H28         13.9910     5.9930    24.6040 ha         1 A1H       0.111000
     48 H30         11.9920     4.9390    20.9700 ha         1 A1H       0.118000
     49 H1           8.5470     1.0680    23.0210 hn         1 A1H       0.333500
     50 H           10.3910    -0.1220    21.0370 h1         1 A1H       0.096700
     51 H12          4.7440    -1.9560    20.3450 h1         1 A1H       0.079700
     52 H13          5.6250    -1.9710    21.8590 h1         1 A1H       0.079700
     53 H15          3.8950     2.5800    19.2990 ha         1 A1H       0.124000
     54 H17          8.0110    -2.9050    19.0620 h5         1 A1H      -0.017200
     55 H2           9.8860    -1.0360    23.8990 hc         1 A1H       0.069200
     56 H3          10.9620    -1.8020    22.7420 hc         1 A1H       0.069200
     57 H27         11.8730     5.6890    25.8500 ha         1 A1H       0.113000
     58 H29         14.0420     5.6180    22.1590 ha         1 A1H       0.113000
     59 H23          6.5080    -4.5660    18.9160 hn         1 A1H       0.391400
     60 F            6.1930     0.0680    23.1900 f          1 A1H      -0.163000
     61 H26          9.8240     5.0240    24.6590 ha         1 A1H       0.118000
@<TRIPOS>BOND
     1     1     7 1   
     2     1    29 1   
     3     1    30 1   
     4     2     3 ar  
     5     2    28 ar  
     6     2    35 1   
     7     3     4 ar  
     8     3    36 1   
     9     4     5 ar  
    10     4    37 1   
    11     5     6 ar  
    12     5    38 1   
    13     6    28 ar  
    14     6    39 1   
    15     7    40 1   
    16     7    41 1   
    17     7    42 1   
    18     8    20 ar  
    19     8    21 ar  
    20     8    60 1   
    21     9    21 ar  
    22     9    22 ar  
    23     9    43 1   
    24    10    20 ar  
    25    10    22 ar  
    26    10    44 1   
    27    11    25 1   
    28    11    33 1   
    29    11    45 1   
    30    11    46 1   
    31    12    25 ar  
    32    12    26 ar  
    33    12    61 1   
    34    13    26 ar  
    35    13    27 ar  
    36    13    47 1   
    37    14    25 ar  
    38    14    27 ar  
    39    14    48 1   
    40    15    16 1   
    41    15    18 1   
    42    15    49 1   
    43    16    17 2   
    44    16    33 1   
    45    18    24 1   
    46    18    29 1   
    47    18    50 1   
    48    19    20 1   
    49    19    30 1   
    50    19    51 1   
    51    19    52 1   
    52    21    34 1   
    53    22    53 1   
    54    23    30 1   
    55    23    31 2   
    56    23    54 1   
    57    24    28 1   
    58    24    55 1   
    59    24    56 1   
    60    26    57 1   
    61    27    58 1   
    62    29    32 2   
    63    31    59 1   
@<TRIPOS>SUBSTRUCTURE
     1 A1H         1 TEMP              0 ****  ****    0 ROOT
