@<TRIPOS>MOLECULE
A1H
   61    63     1     0     0
SMALL
No Charge or Current Charge


@<TRIPOS>ATOM
      1 N1           7.8140    -1.0660    20.3000 n          1 A1H      -0.255200
      2 C4          12.8890     0.2930    22.7360 ca         1 A1H      -0.100000
      3 C5          13.8560     1.2510    23.0890 ca         1 A1H      -0.104500
      4 C6          13.6070     2.1450    24.1440 ca         1 A1H      -0.103000
      5 C7          12.3910     2.0810    24.8450 ca         1 A1H      -0.104500
      6 C8          11.4240     1.1250    24.4910 ca         1 A1H      -0.100000
      7 C10          8.1740    -0.0830    19.2510 c3         1 A1H       0.111300
      8 C13          5.8860     0.5490    22.4830 ca         1 A1H       0.187000
      9 C15          5.5670     2.8830    21.8620 ca         1 A1H      -0.074000
     10 C17          5.0330     1.1120    20.2760 ca         1 A1H      -0.069000
     11 C22          9.3910     4.5030    21.5810 c3         1 A1H       0.231900
     12 C24         10.2520     5.1210    23.8920 ca         1 A1H      -0.077500
     13 C26         12.5990     5.6340    24.2880 ca         1 A1H      -0.099000
     14 C28         11.8410     5.0380    22.0510 ca         1 A1H      -0.077500
     15 N            9.2170     0.9730    21.9650 ns         1 A1H      -0.495900
     16 C            9.7600     2.1320    21.4920 c          1 A1H       0.641100
     17 O           10.7180     2.2040    20.7400 o          1 A1H      -0.540000
     18 C1           9.8010    -0.3760    21.7820 c3         1 A1H       0.052700
     19 C11          5.3900    -1.3430    20.8330 c3         1 A1H       0.268100
     20 C12          5.4270     0.1370    21.2150 ca         1 A1H      -0.122300
     21 C14          5.9600     1.9190    22.8050 ca         1 A1H       0.065000
     22 C16          5.1010     2.4790    20.5990 ca         1 A1H      -0.124000
     23 C18          6.7040    -3.0840    19.5230 c2         1 A1H       0.635100
     24 C2          10.6110    -0.8010    23.0350 c3         1 A1H      -0.043100
     25 C23         10.5220     4.8960    22.5270 ca         1 A1H      -0.130300
     26 C25         11.2870     5.4910    24.7680 ca         1 A1H      -0.119000
     27 C27         12.8760     5.4050    22.9290 ca         1 A1H      -0.119000
     28 C3          11.6680     0.2250    23.4350 ca         1 A1H      -0.091300
     29 C9           8.6990    -1.4080    21.3700 c          1 A1H       0.584100
     30 N2           6.5730    -1.8160    20.0720 nh         1 A1H      -0.529600
     31 N4           5.6880    -3.8580    19.4250 n2         1 A1H      -0.838100
     32 O3           8.5310    -2.4470    22.0040 o          1 A1H      -0.571100
     33 O4           8.9690     3.1650    21.8880 os         1 A1H      -0.450100
     34 Cl           6.5680     2.4410    24.3760 cl         1 A1H      -0.170000
     35 H4          13.0880    -0.3910    21.9150 ha         1 A1H       0.109000
     36 H5          14.7950     1.3020    22.5440 ha         1 A1H       0.111500
     37 H6          14.3530     2.8890    24.4150 ha         1 A1H       0.111000
     38 H7          12.1960     2.7760    25.6580 ha         1 A1H       0.111500
     39 H8          10.4820     1.0910    25.0340 ha         1 A1H       0.109000
     40 H11          9.2480    -0.1330    19.0320 h1         1 A1H       0.050033
     41 H10          7.6200    -0.2980    18.3290 h1         1 A1H       0.050033
     42 H9           7.9160     0.9290    19.5860 h1         1 A1H       0.050033
     43 H14          5.6300     3.9400    22.1080 ha         1 A1H       0.132000
     44 H16          4.6850     0.8100    19.2900 ha         1 A1H       0.128000
     45 H25          9.7080     4.5930    20.5330 h1         1 A1H       0.065700
     46 H24          8.5560     5.2000    21.7280 h1         1 A1H       0.065700
     47 H28         13.4000     5.9180    24.9670 ha         1 A1H       0.111000
     48 H30         12.0670     4.8600    21.0020 ha         1 A1H       0.118000
     49 H1           8.4120     1.0850    22.5660 hn         1 A1H       0.333500
     50 H           10.4990    -0.3360    20.9360 h1         1 A1H       0.096700
     51 H12          4.4870    -1.5120    20.2300 h1         1 A1H       0.079700
     52 H13          5.2730    -1.9540    21.7370 h1         1 A1H       0.079700
     53 H15          4.8010     3.2250    19.8680 ha         1 A1H       0.124000
     54 H17          7.7030    -3.3480    19.1710 h5         1 A1H      -0.017200
     55 H2           9.9180    -0.9670    23.8690 hc         1 A1H       0.069200
     56 H3          11.0900    -1.7690    22.8410 hc         1 A1H       0.069200
     57 H27         11.0710     5.6640    25.8200 ha         1 A1H       0.113000
     58 H29         13.8920     5.5110    22.5560 ha         1 A1H       0.113000
     59 H23          6.0020    -4.7330    18.9830 hn         1 A1H       0.391400
     60 F            6.2860    -0.3710    23.3920 f          1 A1H      -0.163000
     61 H26          9.2390     5.0080    24.2720 ha         1 A1H       0.118000
@<TRIPOS>BOND
     1     1     7 1   
     2     1    29 1   
     3     1    30 1   
     4     2     3 ar  
     5     2    28 ar  
     6     2    35 1   
     7     3     4 ar  
     8     3    36 1   
     9     4     5 ar  
    10     4    37 1   
    11     5     6 ar  
    12     5    38 1   
    13     6    28 ar  
    14     6    39 1   
    15     7    40 1   
    16     7    41 1   
    17     7    42 1   
    18     8    20 ar  
    19     8    21 ar  
    20     8    60 1   
    21     9    21 ar  
    22     9    22 ar  
    23     9    43 1   
    24    10    20 ar  
    25    10    22 ar  
    26    10    44 1   
    27    11    25 1   
    28    11    33 1   
    29    11    45 1   
    30    11    46 1   
    31    12    25 ar  
    32    12    26 ar  
    33    12    61 1   
    34    13    26 ar  
    35    13    27 ar  
    36    13    47 1   
    37    14    25 ar  
    38    14    27 ar  
    39    14    48 1   
    40    15    16 1   
    41    15    18 1   
    42    15    49 1   
    43    16    17 2   
    44    16    33 1   
    45    18    24 1   
    46    18    29 1   
    47    18    50 1   
    48    19    20 1   
    49    19    30 1   
    50    19    51 1   
    51    19    52 1   
    52    21    34 1   
    53    22    53 1   
    54    23    30 1   
    55    23    31 2   
    56    23    54 1   
    57    24    28 1   
    58    24    55 1   
    59    24    56 1   
    60    26    57 1   
    61    27    58 1   
    62    29    32 2   
    63    31    59 1   
@<TRIPOS>SUBSTRUCTURE
     1 A1H         1 TEMP              0 ****  ****    0 ROOT
