@<TRIPOS>MOLECULE
A1H
   73    75     1     0     0
SMALL
No Charge or Current Charge


@<TRIPOS>ATOM
      1 N1           6.7000    -2.0960    21.0080 nh         1 A1H      -0.555600
      2 N3           9.7710     0.5830    22.6770 ns         1 A1H      -0.492900
      3 C4           4.8560    -0.4340    21.4440 ca         1 A1H      -0.102300
      4 C5           4.2440    -0.3670    20.1750 ca         1 A1H      -0.091000
      5 C6           3.5980     0.8100    19.7590 ca         1 A1H      -0.108000
      6 C7           3.5560     1.9260    20.6100 ca         1 A1H       0.122000
      7 C8           4.1550     1.8660    21.8780 ca         1 A1H      -0.108000
      8 C10          7.9710    -0.1030    20.1960 c3         1 A1H       0.100300
      9 C13         11.3940    -1.2900    22.9240 c3         1 A1H      -0.040100
     10 C15         12.6230     0.3820    24.4070 ca         1 A1H      -0.101500
     11 C17         14.4900     1.6970    23.5620 ca         1 A1H      -0.107000
     12 C20         10.2250     1.8170    22.2530 c          1 A1H       0.592100
     13 C21         10.0290     2.9880    23.2610 c3         1 A1H       0.038700
     14 C22          8.6660     3.7600    23.0970 c3         1 A1H      -0.046000
     15 C24          8.5920     4.9480    24.0960 c3         1 A1H      -0.088767
     16 C28         13.6180     5.2710    22.4810 cc         1 A1H      -0.091000
     17 O           11.6170     4.2210    25.3540 o          1 A1H      -0.618100
     18 C11          9.0230    -1.6940    21.8990 c          1 A1H       0.588100
     19 C12         10.2180    -0.7050    22.0920 c3         1 A1H       0.031700
     20 C14         12.5070    -0.2700    23.1620 ca         1 A1H      -0.095300
     21 C16         13.6120     1.3610    24.6060 ca         1 A1H      -0.107000
     22 C18         14.3830     1.0470    22.3210 ca         1 A1H      -0.107000
     23 C19         13.3960     0.0660    22.1220 ca         1 A1H      -0.101500
     24 C2           6.6710    -3.0600    20.0100 c2         1 A1H       0.655100
     25 C23          8.5020     4.3160    21.6550 c3         1 A1H      -0.088767
     26 C25          7.4760     2.8110    23.4040 c3         1 A1H      -0.088767
     27 C27         13.1710     5.0830    23.7720 cd         1 A1H      -0.307600
     28 C29         14.8510     5.9640    22.4130 cc         1 A1H      -0.143000
     29 C3           5.5800    -1.7030    21.8910 c3         1 A1H       0.278100
     30 C30         15.3580     6.3110    23.6390 cd         1 A1H      -0.255000
     31 C9           4.8020     0.6890    22.2950 ca         1 A1H      -0.091000
     32 N2           7.9060    -1.2690    21.1110 n          1 A1H      -0.244200
     33 N4          11.2090     3.8760    23.1370 ns         1 A1H      -0.478900
     34 N5           5.6370    -3.7950    19.8360 n2         1 A1H      -0.852100
     35 O1          10.7920     1.9570    21.1760 o          1 A1H      -0.603100
     36 O2           9.0070    -2.7880    22.4570 o          1 A1H      -0.570100
     37 S1          14.2900     5.7820    24.9530 ss         1 A1H       0.314000
     38 Cl           2.7510     3.4000    20.0890 cl         1 A1H      -0.205000
     39 H23          9.3010     0.5580    23.5750 hn         1 A1H       0.320500
     40 H9           4.2740    -1.2260    19.5080 ha         1 A1H       0.122500
     41 H10          3.1310     0.8590    18.7780 ha         1 A1H       0.129000
     42 H11          4.1170     2.7300    22.5360 ha         1 A1H       0.129000
     43 H13          8.9270    -0.0930    19.6580 h1         1 A1H       0.052367
     44 H15          7.1600    -0.1560    19.4590 h1         1 A1H       0.052367
     45 H14          7.8610     0.8260    20.7650 h1         1 A1H       0.052367
     46 H16         11.0080    -1.6500    23.8860 hc         1 A1H       0.068700
     47 H17         11.7960    -2.1710    22.4090 hc         1 A1H       0.068700
     48 H18         11.9390     0.1410    25.2180 ha         1 A1H       0.110000
     49 H20         15.2480     2.4620    23.7130 ha         1 A1H       0.114000
     50 H1          10.0510     2.5390    24.2620 h1         1 A1H       0.087700
     51 H29          8.7360     4.6030    25.1270 hc         1 A1H       0.039922
     52 H28          9.3560     5.7040    23.8800 hc         1 A1H       0.039922
     53 H27          7.6160     5.4470    24.0430 hc         1 A1H       0.039922
     54 H           10.6040    -0.5150    21.0830 h1         1 A1H       0.097700
     55 H19         13.6900     1.8670    25.5660 ha         1 A1H       0.117500
     56 H21         15.0600     1.3080    21.5110 ha         1 A1H       0.117500
     57 H22         13.3110    -0.4220    21.1540 ha         1 A1H       0.110000
     58 H2           7.5790    -3.1460    19.4100 h5         1 A1H      -0.018200
     59 H25          7.5690     4.8840    21.5600 hc         1 A1H       0.039922
     60 H26          9.3290     4.9880    21.3930 hc         1 A1H       0.039922
     61 H24          8.4710     3.5090    20.9140 hc         1 A1H       0.039922
     62 H31          7.5710     2.3700    24.4040 hc         1 A1H       0.039922
     63 H30          6.5240     3.3540    23.3670 hc         1 A1H       0.039922
     64 H32          7.4140     1.9960    22.6760 hc         1 A1H       0.039922
     65 H35         15.3380     6.1880    21.4680 ha         1 A1H       0.137000
     66 H8           4.8530    -2.5210    21.9810 h1         1 A1H       0.076200
     67 H7           5.9750    -1.5370    22.9020 h1         1 A1H       0.076200
     68 H36         16.2760     6.8390    23.8640 h4         1 A1H       0.152000
     69 H12          5.2640     0.6540    23.2790 ha         1 A1H       0.122500
     70 H33         11.5980     4.0190    22.2140 hn         1 A1H       0.336500
     71 H37          5.8370    -4.4360    19.0570 hn         1 A1H       0.393400
     72 C26         11.9440     4.3720    24.1860 c          1 A1H       0.647700
     73 H34         13.1130     4.9310    21.5820 ha         1 A1H       0.134000
@<TRIPOS>BOND
     1     1    24 1   
     2     1    29 1   
     3     1    32 1   
     4     2    12 1   
     5     2    19 1   
     6     2    39 1   
     7     3     4 ar  
     8     3    29 1   
     9     3    31 ar  
    10     4     5 ar  
    11     4    40 1   
    12     5     6 ar  
    13     5    41 1   
    14     6     7 ar  
    15     6    38 1   
    16     7    31 ar  
    17     7    42 1   
    18     8    32 1   
    19     8    43 1   
    20     8    44 1   
    21     8    45 1   
    22     9    19 1   
    23     9    20 1   
    24     9    46 1   
    25     9    47 1   
    26    10    20 ar  
    27    10    21 ar  
    28    10    48 1   
    29    11    21 ar  
    30    11    22 ar  
    31    11    49 1   
    32    12    13 1   
    33    12    35 2   
    34    13    14 1   
    35    13    33 1   
    36    13    50 1   
    37    14    15 1   
    38    14    25 1   
    39    14    26 1   
    40    15    51 1   
    41    15    52 1   
    42    15    53 1   
    43    16    27 2   
    44    16    28 1   
    45    16    73 1   
    46    17    72 2   
    47    18    19 1   
    48    18    32 1   
    49    18    36 2   
    50    19    54 1   
    51    20    23 ar  
    52    21    55 1   
    53    22    23 ar  
    54    22    56 1   
    55    23    57 1   
    56    24    34 2   
    57    24    58 1   
    58    25    59 1   
    59    25    60 1   
    60    25    61 1   
    61    26    62 1   
    62    26    63 1   
    63    26    64 1   
    64    27    37 1   
    65    27    72 1   
    66    28    30 2   
    67    28    65 1   
    68    29    66 1   
    69    29    67 1   
    70    30    37 1   
    71    30    68 1   
    72    31    69 1   
    73    33    70 1   
    74    33    72 1   
    75    34    71 1   
@<TRIPOS>SUBSTRUCTURE
     1 A1H         1 TEMP              0 ****  ****    0 ROOT
