@<TRIPOS>MOLECULE
A1H
   25    25     1     0     0
SMALL
No Charge or Current Charge


@<TRIPOS>ATOM
      1 C1         139.8780   211.3050   152.2280 c6         1 A1H       0.385300
      2 C2         139.2950   212.4840   153.1050 c6         1 A1H       0.121300
      3 C3         139.1840   213.8050   152.2650 c6         1 A1H       0.145300
      4 C4         138.7140   213.4540   150.8170 c6         1 A1H       0.150300
      5 C5         139.7350   212.4800   150.1190 c6         1 A1H       0.049300
      6 C6         140.5270   213.2410   148.9960 c          1 A1H       0.741000
      7 O2         137.9770   212.1070   153.5840 os         1 A1H      -0.599700
      8 O3         140.4240   214.5360   152.2430 oh         1 A1H      -0.630000
      9 O4         137.4120   212.8350   150.9050 oh         1 A1H      -0.721000
     10 O5         140.5970   211.7990   151.0950 os         1 A1H      -0.414000
     11 O6A        141.7150   213.4700   149.1980 o          1 A1H      -0.728000
     12 O6B        140.1550   213.0180   147.8490 o          1 A1H      -0.728000
     13 S          137.8650   211.2840   155.0050 s6         1 A1H       1.509300
     14 O1S        138.9290   210.2720   154.9110 o          1 A1H      -0.720200
     15 O2S        136.5010   210.7420   154.9890 o          1 A1H      -0.720200
     16 O3S        138.1010   212.3130   156.0250 o          1 A1H      -0.720200
     17 O1         140.7340   210.4610   152.9890 oh         1 A1H      -0.694000
     18 H1         139.0360   210.7000   151.8570 h2         1 A1H       0.026700
     19 H2         139.9510   212.6810   153.9670 h1         1 A1H       0.045700
     20 H3         138.4180   214.4430   152.7290 h1         1 A1H       0.015700
     21 H4         138.6430   214.3820   150.2310 h1         1 A1H       0.061700
     22 H5         139.1580   211.6990   149.6020 h1         1 A1H       0.024700
     23 HO3        140.5810   214.8610   153.1560 ho         1 A1H       0.421000
     24 HO4        137.3430   212.5050   151.8380 ho         1 A1H       0.480000
     25 HO1        140.1720   210.2420   153.7850 ho         1 A1H       0.498000
@<TRIPOS>BOND
     1     1     2 1   
     2     1    10 1   
     3     1    17 1   
     4     1    18 1   
     5     2     3 1   
     6     2     7 1   
     7     2    19 1   
     8     3     4 1   
     9     3     8 1   
    10     3    20 1   
    11     4     5 1   
    12     4     9 1   
    13     4    21 1   
    14     5     6 1   
    15     5    10 1   
    16     5    22 1   
    17     6    11 1   
    18     6    12 1   
    19     7    13 1   
    20     8    23 1   
    21     9    24 1   
    22    13    14 1   
    23    13    15 1   
    24    13    16 1   
    25    17    25 1   
@<TRIPOS>SUBSTRUCTURE
     1 A1H         1 TEMP              0 ****  ****    0 ROOT
