@<TRIPOS>MOLECULE
A1H
   41    43     1     0     0
SMALL
No Charge or Current Charge


@<TRIPOS>ATOM
      1 C1         120.4390   102.8540   132.5690 cc         1 A1H      -0.102300
      2 C2         119.2360   103.5080   132.9110 cc         1 A1H      -0.050000
      3 C3         119.5840   104.6740   133.5310 cd         1 A1H      -0.116100
      4 C7         123.5660   105.7680   133.5630 c3         1 A1H       0.092300
      5 C8         119.5130   103.9590   136.2800 ca         1 A1H       0.211000
      6 C9         118.7650   102.7740   136.1130 ca         1 A1H      -0.036000
      7 C10        119.3790   101.5060   136.2450 ca         1 A1H      -0.130000
      8 C11        120.7550   101.4030   136.5290 ca         1 A1H       0.182000
      9 C12        121.4820   102.5980   136.6990 ca         1 A1H      -0.083800
     10 C13        120.8790   103.8300   136.6000 ca         1 A1H      -0.055200
     11 C14        123.1070   104.2510   136.9990 cc         1 A1H      -0.153100
     12 C15        122.8810   102.8870   136.9460 cd         1 A1H       0.054800
     13 N          123.8800   104.3290   133.4010 n          1 A1H      -0.398800
     14 C          120.4890   101.4900   131.9300 c3         1 A1H      -0.027800
     15 O          120.9490   104.8400   133.5690 os         1 A1H      -0.179000
     16 C4         121.4560   103.6850   133.0050 cd         1 A1H       0.097500
     17 C5         122.9320   103.3520   132.9740 c          1 A1H       0.535600
     18 C6         125.3020   103.9450   133.5520 c3         1 A1H       0.092300
     19 N1         118.9310   105.2030   136.0290 nu         1 A1H      -0.892100
     20 N2         121.8380   104.8260   136.7800 na         1 A1H      -0.213700
     21 O1         123.3360   102.2540   132.6050 o          1 A1H      -0.570100
     22 O2         119.0490   107.1420   134.5110 o          1 A1H      -0.512500
     23 O3         117.1110   105.4460   134.3290 o          1 A1H      -0.512500
     24 S          118.5310   105.7730   134.4900 sy         1 A1H       1.123200
     25 Cl         124.1210   101.6870   137.1190 cl         1 A1H      -0.136000
     26 Cl1        121.4890    99.8060   136.6390 cl         1 A1H      -0.173000
     27 H1         118.2350   103.1050   132.7840 ha         1 A1H       0.167000
     28 H2         124.4880   106.3630   133.5740 h1         1 A1H       0.043700
     29 H3         122.9500   106.1160   132.7250 h1         1 A1H       0.043700
     30 H4         123.0360   105.9340   134.5090 h1         1 A1H       0.043700
     31 H5         117.7100   102.8380   135.8620 ha         1 A1H       0.144000
     32 H6         118.7900   100.6040   136.1040 ha         1 A1H       0.139000
     33 H7         124.0160   104.8220   137.1570 h4         1 A1H       0.230000
     34 H8         121.1150   101.5010   131.0300 hc         1 A1H       0.055700
     35 H9         120.9030   100.7500   132.6250 hc         1 A1H       0.055700
     36 H10        119.4890   101.1510   131.6370 hc         1 A1H       0.055700
     37 H11        125.8510   104.7080   134.1180 h1         1 A1H       0.043700
     38 H12        125.3760   102.9940   134.0950 h1         1 A1H       0.043700
     39 H13        125.7610   103.8320   132.5620 h1         1 A1H       0.043700
     40 H14        119.4230   105.9950   136.4180 hn         1 A1H       0.494000
     41 H15        121.6550   105.8240   136.7550 hn         1 A1H       0.351000
@<TRIPOS>BOND
     1     1     2 1   
     2     1    14 1   
     3     1    16 2   
     4     2     3 2   
     5     2    27 1   
     6     3    15 1   
     7     3    24 1   
     8     4    13 1   
     9     4    28 1   
    10     4    29 1   
    11     4    30 1   
    12     5     6 ar  
    13     5    10 ar  
    14     5    19 1   
    15     6     7 ar  
    16     6    31 1   
    17     7     8 ar  
    18     7    32 1   
    19     8     9 ar  
    20     8    26 1   
    21     9    10 ar  
    22     9    12 1   
    23    10    20 1   
    24    11    12 2   
    25    11    20 1   
    26    11    33 1   
    27    12    25 1   
    28    13    17 1   
    29    13    18 1   
    30    14    34 1   
    31    14    35 1   
    32    14    36 1   
    33    15    16 1   
    34    16    17 1   
    35    17    21 2   
    36    18    37 1   
    37    18    38 1   
    38    18    39 1   
    39    19    24 1   
    40    19    40 1   
    41    20    41 1   
    42    22    24 2   
    43    23    24 2   
@<TRIPOS>SUBSTRUCTURE
     1 A1H         1 TEMP              0 ****  ****    0 ROOT
