@<TRIPOS>MOLECULE
A1H
   25    25     1     0     0
SMALL
abcg2


@<TRIPOS>ATOM
      1 C4         218.9830   214.1980   207.1990 c6         1 A1H       0.155300
      2 C5         219.5870   213.4230   206.0350 c6         1 A1H       0.031300
      3 C6         221.0810   213.1120   206.2920 c          1 A1H       0.746000
      4 C1         218.1100   214.3880   204.4340 c6         1 A1H       0.399300
      5 C2         217.3860   215.2350   205.4870 c6         1 A1H       0.085300
      6 C3         217.5360   214.5970   206.8770 c6         1 A1H       0.148300
      7 O2         217.9430   216.5220   205.4270 oh         1 A1H      -0.704000
      8 O3         216.7710   213.3900   206.8990 os         1 A1H      -0.597700
      9 O22        215.6400   213.6900   209.0830 o          1 A1H      -0.717200
     10 O23        214.8510   212.0490   207.4210 o          1 A1H      -0.717200
     11 O24        214.5370   214.4660   207.0340 o          1 A1H      -0.717200
     12 O4         219.7860   215.3250   207.4510 oh         1 A1H      -0.686000
     13 O6A        221.9150   213.5250   205.4730 o          1 A1H      -0.732500
     14 O6B        221.2860   212.4450   207.3250 o          1 A1H      -0.732500
     15 O5         219.4300   214.1260   204.8160 os         1 A1H      -0.426000
     16 S1         215.3100   213.4080   207.6860 s6         1 A1H       1.502300
     17 H4         218.9520   213.5300   208.0690 h1         1 A1H       0.063700
     18 H2         219.0720   212.4530   205.9840 h1         1 A1H       0.043700
     19 H1         218.1950   214.9710   203.5120 h2         1 A1H       0.067700
     20 H6         216.3170   215.2600   205.2360 h1         1 A1H       0.049700
     21 H3         217.1740   215.2950   207.6440 h1         1 A1H       0.025700
     22 HO2        217.5180   217.0710   206.0950 ho         1 A1H       0.482000
     23 HO4        219.4230   215.7970   208.2070 ho         1 A1H       0.459000
     24 O1         217.3970   213.2340   204.1060 oh         1 A1H      -0.706000
     25 HO1        216.9870   212.8710   204.9010 ho         1 A1H       0.477000
@<TRIPOS>BOND
     1     1     2 1   
     2     1     6 1   
     3     1    12 1   
     4     1    17 1   
     5     2     3 1   
     6     2    15 1   
     7     2    18 1   
     8     3    13 1   
     9     3    14 1   
    10     4     5 1   
    11     4    15 1   
    12     4    19 1   
    13     4    24 1   
    14     5     6 1   
    15     5     7 1   
    16     5    20 1   
    17     6     8 1   
    18     6    21 1   
    19     7    22 1   
    20     8    16 1   
    21     9    16 1   
    22    10    16 1   
    23    11    16 1   
    24    12    23 1   
    25    24    25 1   
@<TRIPOS>SUBSTRUCTURE
     1 A1H         1 TEMP              0 ****  ****    0 ROOT
