@<TRIPOS>MOLECULE
A1H
   28    29     1     0     0
SMALL
No Charge or Current Charge


@<TRIPOS>ATOM
      1 CB           7.9340    10.3380   -18.7890 c3         1 A1H      -0.043400
      2 CA           7.0090    11.0090   -17.7350 c3         1 A1H       0.008500
      3 C            7.4220    10.5440   -16.2770 c          1 A1H       0.695000
      4 CG           7.4880    10.4750   -20.2710 c5         1 A1H      -0.017400
      5 CD2          8.4260     9.7860   -21.2290 ca         1 A1H      -0.126300
      6 CE2          7.8510     8.6610   -21.7690 ca         1 A1H       0.270000
      7 CD1          6.1320     9.7340   -20.6420 c5         1 A1H       0.184800
      8 CE3          9.7230    10.1800   -21.5990 ca         1 A1H      -0.064000
      9 CZ3         10.4220     9.3990   -22.5410 ca         1 A1H      -0.165000
     10 CH2          9.8230     8.2490   -23.1000 ca         1 A1H      -0.092000
     11 CZ2          8.5210     7.8740   -22.7130 ca         1 A1H      -0.174000
     12 N            6.9310    12.5010   -17.9570 n8         1 A1H      -1.006200
     13 NE1          6.5800     8.4440   -21.2740 nu         1 A1H      -0.910200
     14 O            8.4210    11.0370   -15.7690 o          1 A1H      -0.731500
     15 OXT          6.6650     9.7970   -15.6710 o          1 A1H      -0.731500
     16 HB2          8.0100     9.2710   -18.5450 hc         1 A1H       0.051200
     17 HB3          8.9470    10.7420   -18.6740 hc         1 A1H       0.051200
     18 HA           5.9950    10.6210   -17.8960 h1         1 A1H       0.033700
     19 H4           7.4110    11.5450   -20.4940 hc         1 A1H       0.075700
     20 HD1          5.5720    10.3420   -21.3670 h1         1 A1H       0.040200
     21 H6           5.4760     9.5780   -19.7750 h1         1 A1H       0.040200
     22 HE3         10.1760    11.0720   -21.1710 ha         1 A1H       0.113000
     23 HZ3         11.4270     9.6860   -22.8420 ha         1 A1H       0.099000
     24 HH2         10.3670     7.6520   -23.8290 ha         1 A1H       0.092000
     25 HZ2          8.0490     6.9900   -23.1330 ha         1 A1H       0.102000
     26 H            6.2680    12.9040   -17.2830 hn         1 A1H       0.381500
     27 H2           7.8280    12.9160   -17.6750 hn         1 A1H       0.381500
     28 HE1          5.9560     7.8930   -21.8670 hn         1 A1H       0.442000
@<TRIPOS>BOND
     1     1     2 1   
     2     1     4 1   
     3     1    16 1   
     4     1    17 1   
     5     2     3 1   
     6     2    12 1   
     7     2    18 1   
     8     3    14 1   
     9     3    15 1   
    10     4     5 1   
    11     4     7 1   
    12     4    19 1   
    13     5     6 ar  
    14     5     8 ar  
    15     6    11 ar  
    16     6    13 1   
    17     7    13 1   
    18     7    20 1   
    19     7    21 1   
    20     8     9 ar  
    21     8    22 1   
    22     9    10 ar  
    23     9    23 1   
    24    10    11 ar  
    25    10    24 1   
    26    11    25 1   
    27    12    26 1   
    28    12    27 1   
    29    13    28 1   
@<TRIPOS>SUBSTRUCTURE
     1 A1H         1 TEMP              0 ****  ****    0 ROOT
