@<TRIPOS>MOLECULE
A1H
   32    34     1     0     0
SMALL
No Charge or Current Charge


@<TRIPOS>ATOM
      1 N3         -29.8530   -59.0530   -14.8190 nc         1 A1H      -0.342500
      2 C5         -31.1080   -62.3840   -14.6880 c3         1 A1H       0.068900
      3 C6         -31.6590   -60.0940   -15.6740 cd         1 A1H      -0.239500
      4 C8         -31.4340   -57.6740   -16.2180 ca         1 A1H      -0.169500
      5 N10        -36.2250   -55.3230   -18.9680 nc         1 A1H      -0.222800
      6 C11        -32.2770   -55.2560   -17.4120 ca         1 A1H      -0.033000
      7 C12        -33.1590   -56.3580   -17.3740 ca         1 A1H      -0.169500
      8 C14        -34.5160   -56.2540   -17.9540 cd         1 A1H       0.307500
      9 C15        -35.4790   -57.2240   -17.9940 cc         1 A1H      -0.239500
     10 N2         -30.8780   -60.9550   -14.9360 na         1 A1H       0.111800
     11 O6         -28.9300   -54.2620   -16.4060 o          1 A1H      -0.713000
     12 C10        -30.9820   -55.3400   -16.8540 ca         1 A1H      -0.152600
     13 C13        -32.7280   -57.5580   -16.7710 ca         1 A1H      -0.108000
     14 C9         -30.5760   -56.5540   -16.2570 ca         1 A1H      -0.033000
     15 C7         -30.9850   -58.9180   -15.5690 cc         1 A1H       0.307500
     16 O5         -30.4360   -53.1130   -17.4180 o          1 A1H      -0.713000
     17 N4         -29.7820   -60.3010   -14.4240 nd         1 A1H      -0.222800
     18 N5         -36.5260   -56.6080   -18.6320 na         1 A1H       0.111800
     19 N11        -35.0040   -55.1090   -18.5550 nd         1 A1H      -0.342500
     20 C23        -30.0440   -54.1480   -16.8960 c          1 A1H       0.715600
     21 H1         -30.2750   -62.9660   -15.1000 h1         1 A1H       0.053033
     22 H2         -31.1780   -62.5610   -13.6080 h1         1 A1H       0.053033
     23 H3         -32.0430   -62.6970   -15.1680 h1         1 A1H       0.053033
     24 H4         -32.5670   -60.3800   -16.1850 h4         1 A1H       0.156000
     25 H5         -32.5990   -54.3250   -17.8750 ha         1 A1H       0.151500
     26 H6         -35.5030   -58.2440   -17.6410 h4         1 A1H       0.156000
     27 H7         -38.6250   -56.5950   -18.4640 h1         1 A1H       0.053033
     28 H8         -37.9910   -57.1630   -20.0390 h1         1 A1H       0.053033
     29 H9         -37.8860   -58.2190   -18.5980 h1         1 A1H       0.053033
     30 H11        -33.4090   -58.4020   -16.7300 ha         1 A1H       0.075000
     31 H12        -29.5800   -56.6270   -15.8230 ha         1 A1H       0.151500
     32 C16        -37.8380   -57.1820   -18.9530 c3         1 A1H       0.068900
@<TRIPOS>BOND
     1     1    15 1   
     2     1    17 2   
     3     2    10 1   
     4     2    21 1   
     5     2    22 1   
     6     2    23 1   
     7     3    10 1   
     8     3    15 2   
     9     3    24 1   
    10     4    13 ar  
    11     4    14 ar  
    12     4    15 1   
    13     5    18 1   
    14     5    19 2   
    15     6     7 ar  
    16     6    12 ar  
    17     6    25 1   
    18     7     8 1   
    19     7    13 ar  
    20     8     9 2   
    21     8    19 1   
    22     9    18 1   
    23     9    26 1   
    24    10    17 1   
    25    11    20 1   
    26    12    14 ar  
    27    12    20 1   
    28    13    30 1   
    29    14    31 1   
    30    16    20 1   
    31    18    32 1   
    32    27    32 1   
    33    28    32 1   
    34    29    32 1   
@<TRIPOS>SUBSTRUCTURE
     1 A1H         1 TEMP              0 ****  ****    0 ROOT
