@<TRIPOS>MOLECULE
A1H
   44    47     1     0     0
SMALL
abcg2


@<TRIPOS>ATOM
      1 C11         53.6040   -66.1000   -28.4990 c5         1 A1H       0.271300
      2 C12         53.9320   -67.3610   -29.3050 c5         1 A1H       0.134300
      3 C14         55.2360   -67.7940   -28.6440 c5         1 A1H       0.144300
      4 C17         55.8560   -66.4430   -28.2140 c5         1 A1H       0.142300
      5 C18         57.0850   -66.0080   -28.9810 c3         1 A1H       0.045600
      6 C2          49.7730   -64.4690   -27.2800 ca         1 A1H       0.173900
      7 C20         58.1850   -66.3800   -31.5110 ca         1 A1H      -0.145000
      8 C21         58.4260   -67.7510   -31.5490 ca         1 A1H      -0.108000
      9 C22         59.5760   -68.2280   -32.1520 ca         1 A1H      -0.144000
     10 C23         60.4580   -67.3410   -32.7590 ca         1 A1H       0.166000
     11 C24         60.2350   -65.9690   -32.7580 ca         1 A1H      -0.123600
     12 C25         59.0940   -65.5110   -32.0970 ca         1 A1H      -0.034000
     13 C26         61.1420   -64.9390   -33.4360 c          1 A1H       0.722600
     14 C4          49.7330   -63.3160   -29.2690 ca         1 A1H       0.444900
     15 C6          50.9740   -63.9060   -29.5680 ca         1 A1H      -0.096600
     16 C7          51.4900   -64.7670   -28.6130 ca         1 A1H       0.130500
     17 C9          52.8170   -64.5830   -30.3460 cc         1 A1H       0.427700
     18 N1          50.9300   -65.0860   -27.4500 nb         1 A1H      -0.212000
     19 N10         52.6790   -65.2040   -29.1310 na         1 A1H      -0.284300
     20 N3          49.1570   -63.6250   -28.1020 nb         1 A1H      -0.307000
     21 N8          51.8220   -63.8030   -30.6420 nd         1 A1H      -0.562100
     22 O13         52.9490   -68.3450   -29.2590 oh         1 A1H      -0.678000
     23 O15         54.9230   -68.6080   -27.5440 oh         1 A1H      -0.695000
     24 O16         54.8370   -65.4530   -28.3540 os         1 A1H      -0.445000
     25 O28         61.3480   -63.9010   -32.7840 o          1 A1H      -0.697500
     26 O29         61.5470   -65.2300   -34.5710 o          1 A1H      -0.697500
     27 S19         56.7180   -65.7370   -30.7500 ss         1 A1H      -0.247000
     28 CL1         61.8900   -68.0220   -33.4670 cl         1 A1H      -0.208000
     29 H1          53.1590   -66.3750   -27.5350 h2         1 A1H       0.107700
     30 H2          54.1690   -67.0630   -30.3350 h1         1 A1H       0.068700
     31 H3          55.8910   -68.3160   -29.3530 h1         1 A1H       0.071700
     32 H4          56.1460   -66.5150   -27.1570 h1         1 A1H       0.056700
     33 H5          57.8480   -66.7820   -28.8950 h1         1 A1H       0.079200
     34 H6          57.4940   -65.0910   -28.5560 h1         1 A1H       0.079200
     35 H7          49.2550   -64.6760   -26.3490 h5         1 A1H       0.041100
     36 H8          57.7280   -68.4470   -31.1010 ha         1 A1H       0.093000
     37 H9          59.7810   -69.2900   -32.1610 ha         1 A1H       0.107000
     38 H10         58.9160   -64.4450   -32.0500 ha         1 A1H       0.143000
     39 H11         53.6830   -64.7430   -30.9710 h5         1 A1H       0.087800
     40 H12         48.2710   -62.0110   -29.8120 hn         1 A1H       0.502500
     41 H13         49.5640   -62.1600   -30.9420 hn         1 A1H       0.502500
     42 H14         52.2600   -68.1150   -29.8910 ho         1 A1H       0.508000
     43 H15         55.7450   -68.8980   -27.1370 ho         1 A1H       0.501000
     44 N5          49.1110   -62.4800   -30.1040 nv         1 A1H      -1.066900
@<TRIPOS>BOND
     1     1     2 1   
     2     1    19 1   
     3     1    24 1   
     4     1    29 1   
     5     2     3 1   
     6     2    22 1   
     7     2    30 1   
     8     3     4 1   
     9     3    23 1   
    10     3    31 1   
    11     4     5 1   
    12     4    24 1   
    13     4    32 1   
    14     5    27 1   
    15     5    33 1   
    16     5    34 1   
    17     6    18 ar  
    18     6    20 ar  
    19     6    35 1   
    20     7     8 ar  
    21     7    12 ar  
    22     7    27 1   
    23     8     9 ar  
    24     8    36 1   
    25     9    10 ar  
    26     9    37 1   
    27    10    11 ar  
    28    10    28 1   
    29    11    12 ar  
    30    11    13 1   
    31    12    38 1   
    32    13    25 1   
    33    13    26 1   
    34    14    15 ar  
    35    14    20 ar  
    36    14    44 1   
    37    15    16 ar  
    38    15    21 1   
    39    16    18 ar  
    40    16    19 1   
    41    17    19 1   
    42    17    21 2   
    43    17    39 1   
    44    22    42 1   
    45    23    43 1   
    46    40    44 1   
    47    41    44 1   
@<TRIPOS>SUBSTRUCTURE
     1 A1H         1 TEMP              0 ****  ****    0 ROOT
