@<TRIPOS>MOLECULE
A1H
   62    61     1     0     0
SMALL
No Charge or Current Charge


@<TRIPOS>ATOM
      1 O1           6.3740    -2.4590    -0.7030 oh         1 A1H      -0.650000
      2 C1           7.1120    -1.5120    -1.4940 c3         1 A1H       0.165600
      3 C2           6.6410    -0.0450    -1.2520 c3         1 A1H       0.167300
      4 O2           7.3470     0.8280    -2.1580 oh         1 A1H      -0.660000
      5 C3           6.8630     0.4460     0.2080 c3         1 A1H       0.134600
      6 O3           5.7660     0.0010     1.0290 os         1 A1H      -0.427100
      7 C4           5.7870     0.3140     2.3630 c          1 A1H       0.594100
      8 O4           6.6840     0.9390     2.9140 o          1 A1H      -0.496000
      9 C5           4.5530    -0.2220     3.0950 c3         1 A1H      -0.134400
     10 C6           3.4730     0.8680     3.3090 c3         1 A1H      -0.069400
     11 C7           2.8920     1.4460     1.9970 c3         1 A1H      -0.080400
     12 C8           1.7740     2.4860     2.2400 c3         1 A1H      -0.068400
     13 C9           1.2150     3.1240     0.9480 c3         1 A1H      -0.038200
     14 C10          0.5260     2.1230     0.0430 c2         1 A1H      -0.224200
     15 C11         -0.8030     1.9970    -0.1000 c2         1 A1H      -0.216200
     16 C12         -1.4920     1.0090    -1.0180 c3         1 A1H      -0.041200
     17 C13         -2.1220    -0.1850    -0.2610 c3         1 A1H      -0.067400
     18 C14         -3.2020     0.1860     0.7890 c3         1 A1H      -0.072400
     19 C15         -4.4290     0.9670     0.2490 c3         1 A1H      -0.071400
     20 C16         -5.2200     0.2790    -0.8910 c3         1 A1H      -0.073400
     21 C17         -5.8320    -1.0890    -0.5110 c3         1 A1H      -0.075400
     22 C18         -6.6790    -1.7060    -1.6450 c3         1 A1H      -0.076400
     23 C19         -7.2880    -3.0750    -1.2700 c3         1 A1H      -0.075400
     24 C20         -8.1330    -3.6910    -2.4010 c3         1 A1H      -0.088100
     25 H1           6.7250    -3.3510    -0.9210 ho         1 A1H       0.446000
     26 H2           8.1840    -1.5840    -1.2630 h1         1 A1H       0.031700
     27 H3           6.9900    -1.7460    -2.5600 h1         1 A1H       0.031700
     28 H4           5.5650     0.0040    -1.4700 h1         1 A1H       0.055700
     29 H5           6.8470     1.6740    -2.1980 ho         1 A1H       0.451000
     30 H6           7.8190     0.0580     0.5850 h1         1 A1H       0.051200
     31 H7           6.9140     1.5430     0.2210 h1         1 A1H       0.051200
     32 H8           4.1030    -1.0290     2.5050 hc         1 A1H       0.073700
     33 H9           4.8630    -0.6000     4.0760 hc         1 A1H       0.073700
     34 H10          2.6550     0.4380     3.9010 hc         1 A1H       0.049700
     35 H11          3.8980     1.6840     3.9080 hc         1 A1H       0.049700
     36 H12          3.6940     1.9180     1.4160 hc         1 A1H       0.044200
     37 H13          2.4980     0.6220     1.3900 hc         1 A1H       0.044200
     38 H14          0.9500     2.0130     2.7900 hc         1 A1H       0.039200
     39 H15          2.1650     3.2850     2.8820 hc         1 A1H       0.039200
     40 H16          0.5110     3.9150     1.2350 hc         1 A1H       0.043200
     41 H17          2.0280     3.6230     0.4070 hc         1 A1H       0.043200
     42 H18          1.2050     1.4850    -0.5260 ha         1 A1H       0.164000
     43 H19         -1.4820     2.6420     0.4610 ha         1 A1H       0.166000
     44 H20         -2.2600     1.5190    -1.6120 hc         1 A1H       0.042200
     45 H21         -0.7720     0.6090    -1.7420 hc         1 A1H       0.042200
     46 H22         -2.5500    -0.8820    -0.9910 hc         1 A1H       0.039200
     47 H23         -1.3200    -0.7350     0.2480 hc         1 A1H       0.039200
     48 H24         -3.5480    -0.7350     1.2740 hc         1 A1H       0.037200
     49 H25         -2.7350     0.7800     1.5850 hc         1 A1H       0.037200
     50 H26         -5.1140     1.1560     1.0850 hc         1 A1H       0.036700
     51 H27         -4.1010     1.9540    -0.0980 hc         1 A1H       0.036700
     52 H28         -6.0300     0.9520    -1.1990 hc         1 A1H       0.036200
     53 H29         -4.5730     0.1580    -1.7680 hc         1 A1H       0.036200
     54 H30         -5.0300    -1.7900    -0.2500 hc         1 A1H       0.037700
     55 H31         -6.4580    -0.9690     0.3820 hc         1 A1H       0.037700
     56 H32         -7.4880    -1.0130    -1.9090 hc         1 A1H       0.036700
     57 H33         -6.0530    -1.8230    -2.5390 hc         1 A1H       0.036700
     58 H34         -6.4820    -3.7720    -1.0070 hc         1 A1H       0.036200
     59 H35         -7.9160    -2.9610    -0.3770 hc         1 A1H       0.036200
     60 H36         -8.5420    -4.6590    -2.0890 hc         1 A1H       0.031367
     61 H37         -8.9700    -3.0320    -2.6630 hc         1 A1H       0.031367
     62 H38         -7.5230    -3.8500    -3.2990 hc         1 A1H       0.031367
@<TRIPOS>BOND
     1     1     2 1   
     2     1    25 1   
     3     2     3 1   
     4     2    26 1   
     5     2    27 1   
     6     3     4 1   
     7     3     5 1   
     8     3    28 1   
     9     4    29 1   
    10     5     6 1   
    11     5    30 1   
    12     5    31 1   
    13     6     7 1   
    14     7     8 2   
    15     7     9 1   
    16     9    10 1   
    17     9    32 1   
    18     9    33 1   
    19    10    11 1   
    20    10    34 1   
    21    10    35 1   
    22    11    12 1   
    23    11    36 1   
    24    11    37 1   
    25    12    13 1   
    26    12    38 1   
    27    12    39 1   
    28    13    14 1   
    29    13    40 1   
    30    13    41 1   
    31    14    15 2   
    32    14    42 1   
    33    15    16 1   
    34    15    43 1   
    35    16    17 1   
    36    16    44 1   
    37    16    45 1   
    38    17    18 1   
    39    17    46 1   
    40    17    47 1   
    41    18    19 1   
    42    18    48 1   
    43    18    49 1   
    44    19    20 1   
    45    19    50 1   
    46    19    51 1   
    47    20    21 1   
    48    20    52 1   
    49    20    53 1   
    50    21    22 1   
    51    21    54 1   
    52    21    55 1   
    53    22    23 1   
    54    22    56 1   
    55    22    57 1   
    56    23    24 1   
    57    23    58 1   
    58    23    59 1   
    59    24    60 1   
    60    24    61 1   
    61    24    62 1   
@<TRIPOS>SUBSTRUCTURE
     1 A1H         1 TEMP              0 ****  ****    0 ROOT
