@<TRIPOS>MOLECULE
A1H
   32    34     1     0     0
SMALL
abcg2


@<TRIPOS>ATOM
      1 N3         -29.8520   -59.0940   -15.0240 nc         1 A1H      -0.342500
      2 C5         -30.9410   -62.3850   -14.6860 c3         1 A1H       0.068900
      3 C6         -31.6610   -60.1820   -15.6380 cd         1 A1H      -0.239500
      4 C8         -31.4860   -57.6860   -16.2340 ca         1 A1H      -0.169500
      5 N10        -36.2490   -55.2640   -18.7630 nc         1 A1H      -0.222800
      6 C11        -32.3220   -55.2820   -17.3550 ca         1 A1H      -0.033000
      7 C12        -33.2030   -56.3620   -17.3110 ca         1 A1H      -0.169500
      8 C14        -34.5530   -56.2410   -17.8600 cd         1 A1H       0.307500
      9 C15        -35.5310   -57.1970   -18.0190 cc         1 A1H      -0.239500
     10 N2         -30.7980   -60.9800   -14.9930 na         1 A1H       0.111800
     11 O6         -28.9390   -54.3720   -16.4370 o          1 A1H      -0.713000
     12 C10        -31.0330   -55.3870   -16.8490 ca         1 A1H      -0.152600
     13 C13        -32.7750   -57.5600   -16.7450 ca         1 A1H      -0.108000
     14 C9         -30.6250   -56.5910   -16.2880 ca         1 A1H      -0.033000
     15 C7         -31.0410   -58.9530   -15.6560 cc         1 A1H       0.307500
     16 O5         -30.5140   -53.1640   -17.4580 o          1 A1H      -0.713000
     17 N4         -29.7170   -60.3120   -14.6310 nd         1 A1H      -0.222800
     18 N5         -36.5530   -56.5360   -18.5810 na         1 A1H       0.111800
     19 N11        -35.0510   -55.0750   -18.3340 nd         1 A1H      -0.342500
     20 C23        -30.0730   -54.1980   -16.9200 c          1 A1H       0.715600
     21 H1         -30.0310   -62.7210   -14.1990 h1         1 A1H       0.053033
     22 H2         -31.7860   -62.5410   -14.0180 h1         1 A1H       0.053033
     23 H3         -31.0920   -62.9550   -15.6000 h1         1 A1H       0.053033
     24 H4         -32.6030   -60.5370   -16.0210 h4         1 A1H       0.156000
     25 H5         -32.6410   -54.3470   -17.7940 ha         1 A1H       0.151500
     26 H6         -35.5770   -58.2490   -17.7930 h4         1 A1H       0.156000
     27 H7         -38.4280   -56.2390   -19.3850 h1         1 A1H       0.053033
     28 H8         -37.7220   -57.8280   -19.7300 h1         1 A1H       0.053033
     29 H9         -38.3600   -57.4710   -18.1120 h1         1 A1H       0.053033
     30 H11        -33.4540   -58.4030   -16.6940 ha         1 A1H       0.075000
     31 H12        -29.6200   -56.6780   -15.8970 ha         1 A1H       0.151500
     32 C16        -37.8440   -57.0560   -18.9740 c3         1 A1H       0.068900
@<TRIPOS>BOND
     1     1    15 1   
     2     1    17 2   
     3     2    10 1   
     4     2    21 1   
     5     2    22 1   
     6     2    23 1   
     7     3    10 1   
     8     3    15 2   
     9     3    24 1   
    10     4    13 ar  
    11     4    14 ar  
    12     4    15 1   
    13     5    18 1   
    14     5    19 2   
    15     6     7 ar  
    16     6    12 ar  
    17     6    25 1   
    18     7     8 1   
    19     7    13 ar  
    20     8     9 2   
    21     8    19 1   
    22     9    18 1   
    23     9    26 1   
    24    10    17 1   
    25    11    20 1   
    26    12    14 ar  
    27    12    20 1   
    28    13    30 1   
    29    14    31 1   
    30    16    20 1   
    31    18    32 1   
    32    27    32 1   
    33    28    32 1   
    34    29    32 1   
@<TRIPOS>SUBSTRUCTURE
     1 A1H         1 TEMP              0 ****  ****    0 ROOT
