@<TRIPOS>MOLECULE
A1H
   28    29     1     0     0
SMALL
abcg2


@<TRIPOS>ATOM
      1 CB           7.8600    10.2820   -18.8360 c3         1 A1H      -0.043400
      2 CA           7.0210    11.0280   -17.7950 c3         1 A1H       0.008500
      3 C            7.3890    10.4960   -16.3850 c          1 A1H       0.695000
      4 CG           7.4170    10.5110   -20.2860 c5         1 A1H      -0.017400
      5 CD2          8.3890     9.8820   -21.2500 ca         1 A1H      -0.126300
      6 CE2          7.8470     8.6760   -21.7080 ca         1 A1H       0.270000
      7 CD1          6.1220     9.7560   -20.6430 c5         1 A1H       0.184800
      8 CE3          9.6520    10.2720   -21.6440 ca         1 A1H      -0.064000
      9 CZ3         10.3800     9.4600   -22.5170 ca         1 A1H      -0.165000
     10 CH2          9.8320     8.2670   -22.9710 ca         1 A1H      -0.092000
     11 CZ2          8.5610     7.8570   -22.5730 ca         1 A1H      -0.174000
     12 N            7.1750    12.4640   -17.9860 n8         1 A1H      -1.006200
     13 NE1          6.5960     8.4730   -21.1550 nu         1 A1H      -0.910200
     14 O            8.0980    11.2260   -15.6650 o          1 A1H      -0.731500
     15 OXT          6.9610     9.3570   -16.1060 o          1 A1H      -0.731500
     16 HB2          7.8400     9.2100   -18.6210 hc         1 A1H       0.051200
     17 HB3          8.9040    10.5990   -18.7310 hc         1 A1H       0.051200
     18 HA           5.9660    10.7850   -17.9670 h1         1 A1H       0.033700
     19 H4           7.2990    11.5830   -20.4530 hc         1 A1H       0.075700
     20 HD1          5.5610    10.3080   -21.4070 h1         1 A1H       0.040200
     21 H6           5.4620     9.6160   -19.7850 h1         1 A1H       0.040200
     22 HE3         10.0760    11.2040   -21.2870 ha         1 A1H       0.113000
     23 HZ3         11.3680     9.7600   -22.8410 ha         1 A1H       0.099000
     24 HH2         10.3980     7.6420   -23.6500 ha         1 A1H       0.092000
     25 HZ2          8.1430     6.9260   -22.9360 ha         1 A1H       0.102000
     26 H            6.5020    12.9460   -17.4010 hn         1 A1H       0.381500
     27 H2           8.0760    12.7270   -17.6020 hn         1 A1H       0.381500
     28 HE1          5.9360     7.9280   -21.6890 hn         1 A1H       0.442000
@<TRIPOS>BOND
     1     1     2 1   
     2     1     4 1   
     3     1    16 1   
     4     1    17 1   
     5     2     3 1   
     6     2    12 1   
     7     2    18 1   
     8     3    14 1   
     9     3    15 1   
    10     4     5 1   
    11     4     7 1   
    12     4    19 1   
    13     5     6 ar  
    14     5     8 ar  
    15     6    11 ar  
    16     6    13 1   
    17     7    13 1   
    18     7    20 1   
    19     7    21 1   
    20     8     9 ar  
    21     8    22 1   
    22     9    10 ar  
    23     9    23 1   
    24    10    11 ar  
    25    10    24 1   
    26    11    25 1   
    27    12    26 1   
    28    12    27 1   
    29    13    28 1   
@<TRIPOS>SUBSTRUCTURE
     1 A1H         1 TEMP              0 ****  ****    0 ROOT
