@<TRIPOS>MOLECULE
A1H
   54    55     1     0     0
SMALL
abcg2


@<TRIPOS>ATOM
      1 O2          46.3100     5.7860    69.9330 oh         1 A1H      -0.731000
      2 C9          47.2970     8.1100    67.0890 c3         1 A1H      -0.100100
      3 C8          47.2150     7.4390    68.4560 c3         1 A1H      -0.066400
      4 C6          42.2060    10.2080    69.3080 c3         1 A1H      -0.073100
      5 N3          43.5440     6.7290    69.2170 na         1 A1H       0.033300
      6 S1          44.6650     8.9410    68.9450 ss         1 A1H       0.836000
      7 C5          42.9690     8.9340    69.2140 cc         1 A1H      -0.208300
      8 C4          42.5170     7.6580    69.3310 cd         1 A1H      -0.179300
      9 C3          45.8530     5.4940    67.5690 c          1 A1H       0.701000
     10 C1          46.0220     6.5080    68.7550 c3         1 A1H       0.062300
     11 C2          44.7380     7.2610    68.9750 cc         1 A1H      -0.237600
     12 C13         41.2940     4.1540    72.8240 ca         1 A1H       0.167300
     13 C12         43.1340     5.1510    71.8960 ca         1 A1H       0.405900
     14 C11         42.6200     4.8820    70.6050 ca         1 A1H      -0.263300
     15 C10         41.4350     4.1840    70.5780 ca         1 A1H       0.134900
     16 C7          43.2930     5.2780    69.3270 c3         1 A1H       0.117900
     17 CM4         41.0960     7.2510    69.5090 c3         1 A1H      -0.011800
     18 N1          40.7620     3.7990    71.6600 nb         1 A1H      -0.251000
     19 N2          42.4380     4.8020    72.9810 nb         1 A1H      -0.300000
     20 O10         45.1780     5.8580    66.6030 o          1 A1H      -0.690000
     21 O1A         45.8460    13.1010    69.6390 o          1 A1H      -0.863500
     22 O1B         42.8160    11.8670    66.1220 o          1 A1H      -0.935500
     23 O2A         43.3640    13.5910    69.0340 o          1 A1H      -0.863500
     24 O2B         44.8910    13.3890    66.0000 o          1 A1H      -0.935500
     25 O3A         44.6760    11.6570    67.8950 os         1 A1H      -0.738800
     26 O3B         45.1000    10.8650    65.5390 o          1 A1H      -0.935500
     27 O7          44.0610    11.4690    70.3020 os         1 A1H      -0.610400
     28 O9          46.4540     4.4210    67.7660 o          1 A1H      -0.690000
     29 PA          44.5040    12.6210    69.1700 p5         1 A1H       1.441800
     30 PB          44.3320    11.9910    66.2200 p5         1 A1H       1.332900
     31 HO2         46.6050     4.9180    69.5890 ho         1 A1H       0.478000
     32 H92         48.1800     8.7490    67.0690 hc         1 A1H       0.061367
     33 H91         47.4120     7.3810    66.2890 hc         1 A1H       0.061367
     34 H9          46.4440     8.7390    66.8420 hc         1 A1H       0.061367
     35 H8          47.2880     8.1890    69.2510 hc         1 A1H       0.027200
     36 H81         48.1010     6.8110    68.5750 hc         1 A1H       0.027200
     37 H72         42.0640    11.9920    70.4760 h1         1 A1H       0.005700
     38 H71         42.6060    10.5810    71.3850 h1         1 A1H       0.005700
     39 H61         42.2380    10.7330    68.3500 hc         1 A1H       0.095200
     40 H62         41.1580     9.9830    69.5090 hc         1 A1H       0.095200
     41 H6          40.9920     3.9270    69.6190 h4         1 A1H       0.015100
     42 H7'1        44.2400     4.7590    69.2240 h1         1 A1H       0.090700
     43 H7'2        42.6810     4.9820    68.4740 h1         1 A1H       0.090700
     44 HM21        39.6770     3.1880    73.8460 hc         1 A1H       0.044033
     45 HM23        41.1930     3.2500    74.7610 hc         1 A1H       0.044033
     46 HM22        40.2210     4.6990    74.5880 hc         1 A1H       0.044033
     47 HM42        40.8700     6.9840    70.5400 hc         1 A1H       0.040033
     48 HM41        40.4440     8.0750    69.2300 hc         1 A1H       0.040033
     49 HM43        40.8310     6.4080    68.8720 hc         1 A1H       0.040033
     50 HN42        44.6270     5.8440    73.0450 hn         1 A1H       0.509500
     51 HN41        45.0130     5.8140    71.3770 hn         1 A1H       0.509500
     52 CM2         40.5500     3.7960    74.0710 c3         1 A1H      -0.126400
     53 C14         42.7090    11.1110    70.4340 c3         1 A1H       0.237600
     54 N4          44.2980     5.7860    72.0950 nv         1 A1H      -1.046900
@<TRIPOS>BOND
     1     1    10 1   
     2     1    31 1   
     3     2     3 1   
     4     2    32 1   
     5     2    33 1   
     6     2    34 1   
     7     3    10 1   
     8     3    35 1   
     9     3    36 1   
    10     4     7 1   
    11     4    39 1   
    12     4    40 1   
    13     4    53 1   
    14     5     8 1   
    15     5    11 2   
    16     5    16 1   
    17     6     7 1   
    18     6    11 1   
    19     7     8 2   
    20     8    17 1   
    21     9    10 1   
    22     9    20 1   
    23     9    28 1   
    24    10    11 1   
    25    12    18 ar  
    26    12    19 ar  
    27    12    52 1   
    28    13    14 ar  
    29    13    19 ar  
    30    13    54 1   
    31    14    15 ar  
    32    14    16 1   
    33    15    18 ar  
    34    15    41 1   
    35    16    42 1   
    36    16    43 1   
    37    17    47 1   
    38    17    48 1   
    39    17    49 1   
    40    21    29 1   
    41    22    30 1   
    42    23    29 1   
    43    24    30 1   
    44    25    29 1   
    45    25    30 1   
    46    26    30 1   
    47    27    29 1   
    48    27    53 1   
    49    37    53 1   
    50    38    53 1   
    51    44    52 1   
    52    45    52 1   
    53    46    52 1   
    54    50    54 1   
    55    51    54 1   
@<TRIPOS>SUBSTRUCTURE
     1 A1H         1 TEMP              0 ****  ****    0 ROOT
