@<TRIPOS>MOLECULE
A1H
   44    47     1     0     0
SMALL
No Charge or Current Charge


@<TRIPOS>ATOM
      1 C1          54.0390   -67.1230   -29.7510 c5         1 A1H       0.138300
      2 C11         51.0590   -64.7580   -28.9490 ca         1 A1H       0.145500
      3 C12         50.7230   -63.7370   -29.8010 ca         1 A1H      -0.104600
      4 C14         52.5920   -64.5000   -30.5450 cc         1 A1H       0.405700
      5 C16         49.1440   -64.3920   -27.7540 ca         1 A1H       0.183900
      6 C18         49.5210   -63.0400   -29.5610 ca         1 A1H       0.451900
      7 C2          55.1190   -67.5220   -28.7080 c5         1 A1H       0.104300
      8 C20         58.3320   -65.3680   -27.0690 c3         1 A1H       0.060600
      9 C21         59.8660   -65.5120   -27.0910 c3         1 A1H      -0.084700
     10 C22         60.4980   -65.5640   -25.7250 cc         1 A1H       0.207300
     11 C26         59.9060   -65.4740   -24.5020 cd         1 A1H      -0.217000
     12 C3          55.1360   -66.2230   -27.8350 c5         1 A1H       0.134300
     13 C5          53.0010   -66.3650   -28.8370 c5         1 A1H       0.314300
     14 C9          55.8710   -65.0030   -28.4600 c3         1 A1H       0.033600
     15 N13         51.6700   -63.5560   -30.8130 nd         1 A1H      -0.552100
     16 N15         50.2810   -65.1130   -27.9080 nb         1 A1H      -0.213000
     17 N17         48.7210   -63.3680   -28.5340 nb         1 A1H      -0.303000
     18 N19         49.0970   -62.0160   -30.3490 nv         1 A1H      -1.066900
     19 N23         61.8470   -65.7210   -25.5860 nc         1 A1H      -0.359000
     20 N24         62.1400   -65.7340   -24.3110 nd         1 A1H      -0.191800
     21 N25         60.9630   -65.5840   -23.6210 na         1 A1H      -0.007200
     22 N8          52.2480   -65.2470   -29.4120 na         1 A1H      -0.288300
     23 O4          53.7370   -65.8970   -27.6770 os         1 A1H      -0.452000
     24 O6          54.7070   -68.6940   -27.9750 oh         1 A1H      -0.688000
     25 O7          53.5150   -68.2950   -30.3850 oh         1 A1H      -0.670000
     26 S10         57.6690   -65.3160   -28.7950 ss         1 A1H      -0.426000
     27 H1          54.4760   -66.4570   -30.5050 h1         1 A1H       0.042700
     28 H4          53.4960   -64.6750   -31.1150 h5         1 A1H       0.061800
     29 H16         48.5030   -64.6660   -26.9170 h5         1 A1H       0.047100
     30 H2          56.0910   -67.6960   -29.1910 h1         1 A1H       0.069700
     31 H202        58.0540   -64.4410   -26.5490 h1         1 A1H       0.059700
     32 H201        57.8880   -66.2170   -26.5340 h1         1 A1H       0.059700
     33 H211        60.1260   -66.4230   -27.6430 hc         1 A1H       0.075700
     34 H212        60.2910   -64.6730   -27.6520 hc         1 A1H       0.075700
     35 H26         58.8730   -65.3460   -24.2020 h4         1 A1H       0.167000
     36 H3          55.5690   -66.4120   -26.8440 h1         1 A1H       0.073700
     37 H5          52.2450   -67.0850   -28.4970 h2         1 A1H       0.130700
     38 H91         55.3890   -64.7160   -29.4020 h1         1 A1H       0.082700
     39 H92         55.7840   -64.1500   -27.7750 h1         1 A1H       0.082700
     40 H191        48.1130   -61.7630   -30.3120 hn         1 A1H       0.507000
     41 H192        49.5640   -61.9010   -31.2450 hn         1 A1H       0.507000
     42 HO6         55.3960   -68.8790   -27.2930 ho         1 A1H       0.508000
     43 HO7         53.6940   -69.0120   -29.7260 ho         1 A1H       0.514000
     44 H6          60.9380   -65.5630   -22.6040 hn         1 A1H       0.380000
@<TRIPOS>BOND
     1     1     7 1   
     2     1    13 1   
     3     1    25 1   
     4     1    27 1   
     5     2     3 ar  
     6     2    16 ar  
     7     2    22 1   
     8     3     6 ar  
     9     3    15 1   
    10     4    15 2   
    11     4    22 1   
    12     4    28 1   
    13     5    16 ar  
    14     5    17 ar  
    15     5    29 1   
    16     6    17 ar  
    17     6    18 1   
    18     7    12 1   
    19     7    24 1   
    20     7    30 1   
    21     8     9 1   
    22     8    26 1   
    23     8    31 1   
    24     8    32 1   
    25     9    10 1   
    26     9    33 1   
    27     9    34 1   
    28    10    11 2   
    29    10    19 1   
    30    11    21 1   
    31    11    35 1   
    32    12    14 1   
    33    12    23 1   
    34    12    36 1   
    35    13    22 1   
    36    13    23 1   
    37    13    37 1   
    38    14    26 1   
    39    14    38 1   
    40    14    39 1   
    41    18    40 1   
    42    18    41 1   
    43    19    20 2   
    44    20    21 1   
    45    21    44 1   
    46    24    42 1   
    47    25    43 1   
@<TRIPOS>SUBSTRUCTURE
     1 A1H         1 TEMP              0 ****  ****    0 ROOT
