@<TRIPOS>MOLECULE
A1H
   60    63     1     0     0
SMALL
abcg2


@<TRIPOS>ATOM
      1 C1          13.1600    -2.0180    14.2620 ca         1 A1H      -0.246000
      2 C2          14.3310    -2.3500    13.5930 ca         1 A1H       0.144000
      3 C4          14.3890    -3.4080    12.5890 cc         1 A1H       0.171000
      4 C5          15.4970    -3.8080    11.8320 cc         1 A1H      -0.152000
      5 C6          15.0250    -4.8340    11.0430 cd         1 A1H      -0.234600
      6 C10         13.2630    -0.9890    15.1850 ca         1 A1H       0.145900
      7 C12         15.4630    -0.7500    14.7420 ca         1 A1H       0.388900
      8 C17         17.9130    -0.2040    14.5720 ca         1 A1H       0.330000
      9 C14         15.7200    -5.6220     9.9950 c          1 A1H       0.643700
     10 C18         18.8310     0.7480    15.0310 ca         1 A1H      -0.159000
     11 C19         20.1660     0.6980    14.6580 ca         1 A1H      -0.045300
     12 C20         20.5930    -0.3230    13.8120 ca         1 A1H      -0.142000
     13 C21         19.6980    -1.2760    13.3430 ca         1 A1H      -0.045300
     14 C22         18.3600    -1.2160    13.7230 ca         1 A1H      -0.159000
     15 C23         21.1290     1.7460    15.1370 c3         1 A1H      -0.046800
     16 C24         20.1590    -2.3580    12.4090 c3         1 A1H      -0.046800
     17 N13         16.6050    -0.0690    15.0320 nu         1 A1H      -0.930900
     18 N8          15.4760    -1.7150    13.8330 nb         1 A1H      -0.241000
     19 N11         14.3910    -0.3500    15.4380 nb         1 A1H      -0.243000
     20 N3          13.3250    -4.1390    12.2830 nd         1 A1H      -0.497800
     21 N7          13.7140    -4.9870    11.3550 na         1 A1H       0.186800
     22 O15         15.1080    -6.1560     9.0810 o          1 A1H      -0.601100
     23 N16         17.0510    -5.6690    10.1500 ns         1 A1H      -0.493900
     24 C25         17.9690    -6.2720     9.1960 c6         1 A1H       0.120700
     25 C26         18.6910    -5.2050     8.3710 c6         1 A1H      -0.094400
     26 C27         19.6500    -4.3760     9.2170 c6         1 A1H      -0.079400
     27 C28         20.6520    -5.2680     9.9420 c6         1 A1H      -0.072400
     28 C29         19.9500    -6.3410    10.7700 c6         1 A1H      -0.114400
     29 C30         18.9760    -7.1690     9.9250 c6         1 A1H       0.142500
     30 N31         18.2770    -8.2200    10.6470 n8         1 A1H      -0.982200
     31 H1          12.2240    -2.5220    14.0790 ha         1 A1H       0.151000
     32 H5          16.4890    -3.3870    11.8470 ha         1 A1H       0.156000
     33 H92         11.8800    -5.9030    11.4630 h1         1 A1H       0.069033
     34 H93         12.4700    -5.6680     9.8070 h1         1 A1H       0.069033
     35 H91         13.1660    -6.9390    10.8260 h1         1 A1H       0.069033
     36 H10         12.3920    -0.6690    15.7470 h4         1 A1H       0.024100
     37 H18         18.4940     1.5360    15.6960 ha         1 A1H       0.127000
     38 H20         21.6370    -0.3770    13.5230 ha         1 A1H       0.111000
     39 H22         17.6720    -1.9630    13.3600 ha         1 A1H       0.127000
     40 H23         21.1880     2.5730    14.4270 hc         1 A1H       0.041200
     41 H94         20.8270     2.1640    16.0970 hc         1 A1H       0.041200
     42 H95         22.1350     1.3410    15.2440 hc         1 A1H       0.041200
     43 H96         20.1740    -2.0020    11.3760 hc         1 A1H       0.041200
     44 H97         21.1680    -2.6920    12.6470 hc         1 A1H       0.041200
     45 H24         19.4990    -3.2260    12.4390 hc         1 A1H       0.041200
     46 H13         16.4610     0.6640    15.7110 hn         1 A1H       0.510000
     47 H16         17.4470    -5.2080    10.9540 hn         1 A1H       0.316500
     48 H25         17.3730    -6.9000     8.5340 h1         1 A1H       0.097700
     49 H98         19.2520    -5.7110     7.5790 hc         1 A1H       0.055200
     50 H26         17.9550    -4.5670     7.8760 hc         1 A1H       0.055200
     51 H27         20.1720    -3.6570     8.5830 hc         1 A1H       0.042200
     52 H99         19.0890    -3.7830     9.9460 hc         1 A1H       0.042200
     53 H28         21.3010    -5.7520     9.2040 hc         1 A1H       0.043200
     54 HA1         21.3040    -4.6670    10.5810 hc         1 A1H       0.043200
     55 HB1         19.4190    -5.8760    11.6110 hc         1 A1H       0.037700
     56 H29         20.6850    -7.0130    11.2210 hc         1 A1H       0.037700
     57 H30         19.5610    -7.6560     9.1360 h1         1 A1H       0.067700
     58 H31         18.9570    -8.8510    11.0540 hn         1 A1H       0.394500
     59 HC1         17.7770    -7.8190    11.4320 hn         1 A1H       0.394500
     60 C9          12.7540    -5.9340    10.8220 c3         1 A1H       0.070900
@<TRIPOS>BOND
     1     1     2 ar  
     2     1     6 ar  
     3     1    31 1   
     4     2     3 1   
     5     2    18 ar  
     6     3     4 1   
     7     3    20 2   
     8     4     5 2   
     9     4    32 1   
    10     5     9 1   
    11     5    21 1   
    12     6    19 ar  
    13     6    36 1   
    14     7    17 1   
    15     7    18 ar  
    16     7    19 ar  
    17     8    10 ar  
    18     8    14 ar  
    19     8    17 1   
    20     9    22 2   
    21     9    23 1   
    22    10    11 ar  
    23    10    37 1   
    24    11    12 ar  
    25    11    15 1   
    26    12    13 ar  
    27    12    38 1   
    28    13    14 ar  
    29    13    16 1   
    30    14    39 1   
    31    15    40 1   
    32    15    41 1   
    33    15    42 1   
    34    16    43 1   
    35    16    44 1   
    36    16    45 1   
    37    17    46 1   
    38    20    21 1   
    39    21    60 1   
    40    23    24 1   
    41    23    47 1   
    42    24    25 1   
    43    24    29 1   
    44    24    48 1   
    45    25    26 1   
    46    25    49 1   
    47    25    50 1   
    48    26    27 1   
    49    26    51 1   
    50    26    52 1   
    51    27    28 1   
    52    27    53 1   
    53    27    54 1   
    54    28    29 1   
    55    28    55 1   
    56    28    56 1   
    57    29    30 1   
    58    29    57 1   
    59    30    58 1   
    60    30    59 1   
    61    33    60 1   
    62    34    60 1   
    63    35    60 1   
@<TRIPOS>SUBSTRUCTURE
     1 A1H         1 TEMP              0 ****  ****    0 ROOT
