@<TRIPOS>MOLECULE
A1H
   44    47     1     0     0
SMALL
No Charge or Current Charge


@<TRIPOS>ATOM
      1 C11         53.4000   -66.5290   -28.6270 c5         1 A1H       0.271300
      2 C12         53.6410   -67.7370   -29.5870 c5         1 A1H       0.134300
      3 C14         54.7330   -68.4900   -28.7700 c5         1 A1H       0.144300
      4 C17         55.5700   -67.2950   -28.1760 c5         1 A1H       0.142300
      5 C18         56.9160   -67.0090   -28.8880 c3         1 A1H       0.045600
      6 C2          50.3040   -63.7780   -26.9270 ca         1 A1H       0.173900
      7 C20         58.4260   -66.3670   -31.2980 ca         1 A1H      -0.145000
      8 C21         59.5540   -66.4110   -30.4550 ca         1 A1H      -0.108000
      9 C22         60.8390   -66.2380   -30.9950 ca         1 A1H      -0.144000
     10 C23         61.0130   -66.0270   -32.3730 ca         1 A1H       0.166000
     11 C24         59.8920   -65.9880   -33.2250 ca         1 A1H      -0.123600
     12 C25         58.6030   -66.1510   -32.6770 ca         1 A1H      -0.034000
     13 C26         60.0420   -65.7680   -34.7010 c          1 A1H       0.722600
     14 C4          50.3080   -62.7860   -28.9900 ca         1 A1H       0.444900
     15 C6          51.2980   -63.7020   -29.4020 ca         1 A1H      -0.096600
     16 C7          51.7340   -64.6340   -28.4940 ca         1 A1H       0.130500
     17 C9          52.7840   -64.8580   -30.4480 cc         1 A1H       0.427700
     18 N1          51.2490   -64.6980   -27.2380 nb         1 A1H      -0.212000
     19 N10         52.6740   -65.3750   -29.1520 na         1 A1H      -0.284300
     20 N3          49.8070   -62.8180   -27.7450 nb         1 A1H      -0.307000
     21 N8          51.9440   -63.8210   -30.6370 nd         1 A1H      -0.562100
     22 O13         52.4800   -68.5670   -29.8040 oh         1 A1H      -0.678000
     23 O15         54.1100   -69.2820   -27.7470 oh         1 A1H      -0.695000
     24 O16         54.7250   -66.1160   -28.2520 os         1 A1H      -0.445000
     25 O28         59.4550   -64.8180   -35.1980 o          1 A1H      -0.697500
     26 O29         60.6650   -66.5950   -35.3510 o          1 A1H      -0.697500
     27 S19         56.7500   -66.5720   -30.6850 ss         1 A1H      -0.247000
     28 Cl1         62.6500   -65.7780   -32.9820 cl         1 A1H      -0.208000
     29 H1          52.8560   -66.8680   -27.7350 h2         1 A1H       0.107700
     30 H2          54.0530   -67.3970   -30.5460 h1         1 A1H       0.068700
     31 H3          55.3460   -69.1250   -29.4240 h1         1 A1H       0.071700
     32 H4          55.7920   -67.4870   -27.1170 h1         1 A1H       0.056700
     33 H5          57.5540   -67.8970   -28.8000 h1         1 A1H       0.079200
     34 H6          57.4130   -66.1800   -28.3700 h1         1 A1H       0.079200
     35 H7          49.9030   -63.8140   -25.9160 h5         1 A1H       0.041100
     36 H8          59.4570   -66.5680   -29.3850 ha         1 A1H       0.093000
     37 H9          61.7070   -66.2630   -30.3400 ha         1 A1H       0.107000
     38 H10         57.7340   -66.1160   -33.3320 ha         1 A1H       0.143000
     39 H11         53.4730   -65.2620   -31.1810 h5         1 A1H       0.087800
     40 H12         49.3390   -61.0300   -29.3830 hn         1 A1H       0.502500
     41 H13         50.3250   -61.6390   -30.6700 hn         1 A1H       0.502500
     42 H14         51.8700   -68.0780   -30.4060 ho         1 A1H       0.508000
     43 H15         53.2410   -69.5360   -28.1460 ho         1 A1H       0.501000
     44 N5          49.8120   -61.8210   -29.8100 nv         1 A1H      -1.066900
@<TRIPOS>BOND
     1     1     2 1   
     2     1    19 1   
     3     1    24 1   
     4     1    29 1   
     5     2     3 1   
     6     2    22 1   
     7     2    30 1   
     8     3     4 1   
     9     3    23 1   
    10     3    31 1   
    11     4     5 1   
    12     4    24 1   
    13     4    32 1   
    14     5    27 1   
    15     5    33 1   
    16     5    34 1   
    17     6    18 ar  
    18     6    20 ar  
    19     6    35 1   
    20     7     8 ar  
    21     7    12 ar  
    22     7    27 1   
    23     8     9 ar  
    24     8    36 1   
    25     9    10 ar  
    26     9    37 1   
    27    10    11 ar  
    28    10    28 1   
    29    11    12 ar  
    30    11    13 1   
    31    12    38 1   
    32    13    25 1   
    33    13    26 1   
    34    14    15 ar  
    35    14    20 ar  
    36    14    44 1   
    37    15    16 ar  
    38    15    21 1   
    39    16    18 ar  
    40    16    19 1   
    41    17    19 1   
    42    17    21 2   
    43    17    39 1   
    44    22    42 1   
    45    23    43 1   
    46    40    44 1   
    47    41    44 1   
@<TRIPOS>SUBSTRUCTURE
     1 A1H         1 TEMP              0 ****  ****    0 ROOT
