@<TRIPOS>MOLECULE
A1H
   53    55     1     0     0
SMALL
abcg2


@<TRIPOS>ATOM
      1 C1           7.9300    34.0480    34.3770 c3         1 A1H      -0.479100
      2 C2          10.5260    33.3630    33.2880 ca         1 A1H      -0.301500
      3 C3          11.5420    33.3400    34.2370 ca         1 A1H      -0.056000
      4 C7          10.5160    32.3840    32.2780 ca         1 A1H       0.000200
      5 C8           9.4390    32.3990    31.2880 ce         1 A1H      -0.101200
      6 C9           9.5490    32.3410    29.9530 cf         1 A1H      -0.029900
      7 C10         10.7840    32.1600    29.2710 ch         1 A1H       0.293700
      8 C11          8.3380    32.5190    29.0830 c          1 A1H       0.608300
      9 C12          6.2220    33.7610    28.9590 c3         1 A1H       0.142000
     10 C13          5.4440    34.6410    29.9060 cx         1 A1H      -0.108700
     11 C14          4.4880    35.6200    29.2700 cx         1 A1H      -0.105400
     12 C15          5.7800    36.1120    29.8220 cx         1 A1H      -0.105400
     13 C16          5.0770    34.0580    31.2310 ca         1 A1H       0.011700
     14 C19          4.3790    32.9600    33.7250 ca         1 A1H      -0.207300
     15 C20          4.8890    32.1510    32.7200 ca         1 A1H      -0.064000
     16 C21          5.2290    32.6960    31.4920 ca         1 A1H      -0.121500
     17 C22          4.0850    32.3960    35.0760 c3         1 A1H       0.357300
     18 F2           5.1460    32.4980    35.8940 f          1 A1H      -0.114667
     19 F            3.7640    31.0980    35.0260 f          1 A1H      -0.114667
     20 F1           3.0740    33.0270    35.6860 f          1 A1H      -0.114667
     21 C18          4.2100    34.3180    33.4820 ca         1 A1H      -0.064000
     22 C17          4.5530    34.8520    32.2540 ca         1 A1H      -0.121500
     23 N1           7.5170    33.4720    29.5350 ns         1 A1H      -0.509900
     24 O1           8.1640    31.8560    28.0740 o          1 A1H      -0.590100
     25 N           11.7640    32.0170    28.6820 n1         1 A1H      -0.437000
     26 P            9.2510    34.6760    33.3140 py         1 A1H       1.186500
     27 O            8.7810    35.0500    31.9290 o          1 A1H      -0.574000
     28 C            9.9750    36.0700    34.2050 c3         1 A1H      -0.479100
     29 C6          11.5130    31.4130    32.2460 ca         1 A1H      -0.097000
     30 C5          12.5160    31.4030    33.2030 ca         1 A1H      -0.068000
     31 C4          12.5310    32.3660    34.1990 ca         1 A1H      -0.113000
     32 H1           8.3220    33.7600    35.3520 hc         1 A1H       0.083533
     33 H2           7.1790    34.8270    34.5130 hc         1 A1H       0.083533
     34 H3           7.4520    33.1840    33.9170 hc         1 A1H       0.083533
     35 H4          11.5830    34.0850    35.0200 ha         1 A1H       0.109000
     36 H5           8.4320    32.4900    31.6760 ha         1 A1H       0.189000
     37 H8           6.3320    34.2750    28.0000 h1         1 A1H       0.054200
     38 H9           5.6940    32.8280    28.7480 h1         1 A1H       0.054200
     39 H10          4.3660    35.5740    28.1950 hc         1 A1H       0.080450
     40 H11          3.5770    35.8460    29.8100 hc         1 A1H       0.080450
     41 H12          6.5610    36.3920    29.1250 hc         1 A1H       0.080450
     42 H13          5.7730    36.7010    30.7290 hc         1 A1H       0.080450
     43 H14          5.0320    31.0900    32.8740 ha         1 A1H       0.128500
     44 H15          5.6170    32.0260    30.7380 ha         1 A1H       0.124500
     45 H16          3.8140    34.9760    34.2440 ha         1 A1H       0.128500
     46 H17          4.4020    35.9140    32.1070 ha         1 A1H       0.124500
     47 H18          7.8410    34.0700    30.2910 hn         1 A1H       0.371500
     48 H19         10.1990    35.8280    35.2420 hc         1 A1H       0.083533
     49 H20         10.8840    36.4070    33.7080 hc         1 A1H       0.083533
     50 H21          9.2480    36.8820    34.1950 hc         1 A1H       0.083533
     51 H22         11.4900    30.6420    31.4870 ha         1 A1H       0.129000
     52 H23         13.2810    30.6390    33.1700 ha         1 A1H       0.123000
     53 H24         13.3120    32.3640    34.9480 ha         1 A1H       0.120000
@<TRIPOS>BOND
     1     1    26 1   
     2     1    32 1   
     3     1    33 1   
     4     1    34 1   
     5     2     3 ar  
     6     2     4 ar  
     7     2    26 1   
     8     3    31 ar  
     9     3    35 1   
    10     4     5 1   
    11     4    29 ar  
    12     5     6 2   
    13     5    36 1   
    14     6     7 1   
    15     6     8 1   
    16     7    25 3   
    17     8    23 1   
    18     8    24 2   
    19     9    10 1   
    20     9    23 1   
    21     9    37 1   
    22     9    38 1   
    23    10    11 1   
    24    10    12 1   
    25    10    13 1   
    26    11    12 1   
    27    11    39 1   
    28    11    40 1   
    29    12    41 1   
    30    12    42 1   
    31    13    16 ar  
    32    13    22 ar  
    33    14    15 ar  
    34    14    17 1   
    35    14    21 ar  
    36    15    16 ar  
    37    15    43 1   
    38    16    44 1   
    39    17    18 1   
    40    17    19 1   
    41    17    20 1   
    42    21    22 ar  
    43    21    45 1   
    44    22    46 1   
    45    23    47 1   
    46    26    27 2   
    47    26    28 1   
    48    28    48 1   
    49    28    49 1   
    50    28    50 1   
    51    29    30 ar  
    52    29    51 1   
    53    30    31 ar  
    54    30    52 1   
    55    31    53 1   
@<TRIPOS>SUBSTRUCTURE
     1 A1H         1 TEMP              0 ****  ****    0 ROOT
