@<TRIPOS>MOLECULE
A1H
   62    65     1     0     0
SMALL
abcg2


@<TRIPOS>ATOM
      1 C6          15.1210    -7.9170     8.0730 cy         1 A1H       0.144300
      2 C7          14.0420    -8.6590     7.2700 cy         1 A1H      -0.107400
      3 C8          13.8480    -7.3280     6.5290 cy         1 A1H       0.144300
      4 C10         11.5770    -1.7070    10.9070 cc         1 A1H       0.166000
      5 C11         10.5710    -0.3190    12.7350 ca         1 A1H      -0.244000
      6 C17         15.4280     1.1690    12.6600 ca         1 A1H       0.391000
      7 C18         15.7250     0.0790    11.8550 ca         1 A1H      -0.254000
      8 C19         17.0100    -0.0460    11.3180 ca         1 A1H       0.199600
      9 C9          11.6580    -0.6970    11.9570 ca         1 A1H       0.147000
     10 N1          13.9050    -3.7950     8.0200 ns         1 A1H      -0.480900
     11 C14         12.9820     0.7860    13.0550 ca         1 A1H       0.385900
     12 C12         10.8170     0.6680    13.6760 ca         1 A1H       0.143900
     13 C3          15.6970    -3.2150     6.4800 c3         1 A1H      -0.109100
     14 C2          14.7100    -4.2900     6.9200 c3         1 A1H       0.114700
     15 N5          14.5410    -6.6460     7.6290 nq         1 A1H      -0.709600
     16 O29         11.8370    -4.2190     7.1770 o          1 A1H      -0.613100
     17 C24         12.0110    -3.0460     9.2220 cd         1 A1H      -0.231600
     18 C23         12.5830    -2.0670    10.0020 cc         1 A1H      -0.147000
     19 N25         10.7460    -3.2160     9.6820 na         1 A1H       0.185800
     20 C27          9.7250    -4.1360     9.2190 c3         1 A1H       0.071900
     21 N26         10.4780    -2.4190    10.6940 nd         1 A1H      -0.499800
     22 N15         12.8560    -0.1440    12.1210 nb         1 A1H      -0.235000
     23 N13         12.0010     1.2290    13.8510 nb         1 A1H      -0.242000
     24 N16         14.1900     1.3820    13.2590 nu         1 A1H      -0.931900
     25 C22         16.4150     2.1290    12.9390 ca         1 A1H      -0.254000
     26 C21         17.6840     1.9800    12.4040 ca         1 A1H       0.199600
     27 O30         18.6940     2.8430    12.6170 os         1 A1H      -0.344100
     28 C33         18.4520     3.9930    13.4010 c3         1 A1H       0.148900
     29 C20         17.9960     0.8900    11.5820 ca         1 A1H      -0.266000
     30 O31         17.1960    -1.1330    10.5460 os         1 A1H      -0.344100
     31 C32         18.4470    -1.3160     9.9160 c3         1 A1H       0.148900
     32 H62         15.1540    -8.0620     9.1550 h1         1 A1H       0.047950
     33 H61         16.1250    -8.0980     7.6660 h1         1 A1H       0.047950
     34 H71         13.1800    -8.9400     7.8720 hc         1 A1H       0.057700
     35 H72         14.3620    -9.5140     6.6790 hc         1 A1H       0.057700
     36 H81         14.4120    -7.3000     5.5860 h1         1 A1H       0.047950
     37 H82         12.8290    -6.9880     6.3340 h1         1 A1H       0.047950
     38 H11          9.5910    -0.7570    12.6150 ha         1 A1H       0.151000
     39 H18         14.9840    -0.6690    11.6300 ha         1 A1H       0.139000
     40 H13         14.4100    -3.4550     8.8250 hn         1 A1H       0.322500
     41 H12         10.0170     1.0230    14.3170 h4         1 A1H       0.023100
     42 H33         15.1740    -2.3110     6.1710 hc         1 A1H       0.043367
     43 H31         16.3800    -2.9540     7.2910 hc         1 A1H       0.043367
     44 H32         16.2940    -3.5640     5.6380 hc         1 A1H       0.043367
     45 H2          14.0300    -4.5040     6.0940 h1         1 A1H       0.082700
     46 H42         16.1250    -5.8410     6.4870 h1         1 A1H       0.033700
     47 H41         16.0690    -5.3730     8.1840 h1         1 A1H       0.033700
     48 H23         13.5710    -1.6460     9.9170 ha         1 A1H       0.162000
     49 H83          8.9490    -4.1670     9.9770 h1         1 A1H       0.067367
     50 H84          9.2970    -3.8000     8.2780 h1         1 A1H       0.067367
     51 H27         10.1380    -5.1310     9.0890 h1         1 A1H       0.067367
     52 H16         14.1570     2.1220    13.9440 hn         1 A1H       0.511000
     53 H22         16.1640     2.9740    13.5680 ha         1 A1H       0.139000
     54 H9A         19.3850     4.5500    13.4290 h1         1 A1H       0.040867
     55 H88         17.6760     4.6290    12.9660 h1         1 A1H       0.040867
     56 H89         18.1640     3.7400    14.4250 h1         1 A1H       0.040867
     57 H20         18.9960     0.8110    11.1780 ha         1 A1H       0.132000
     58 H85         18.3640    -2.2270     9.3270 h1         1 A1H       0.040867
     59 H86         18.6940    -0.4870     9.2480 h1         1 A1H       0.040867
     60 H87         19.2560    -1.4390    10.6400 h1         1 A1H       0.040867
     61 C4          15.4400    -5.5740     7.3100 c3         1 A1H       0.150800
     62 C28         12.5660    -3.7580     8.0440 c          1 A1H       0.653700
@<TRIPOS>BOND
     1     1     2 1   
     2     1    15 1   
     3     1    32 1   
     4     1    33 1   
     5     2     3 1   
     6     2    34 1   
     7     2    35 1   
     8     3    15 1   
     9     3    36 1   
    10     3    37 1   
    11     4     9 1   
    12     4    18 1   
    13     4    21 2   
    14     5     9 ar  
    15     5    12 ar  
    16     5    38 1   
    17     6     7 ar  
    18     6    24 1   
    19     6    25 ar  
    20     7     8 ar  
    21     7    39 1   
    22     8    29 ar  
    23     8    30 1   
    24     9    22 ar  
    25    10    14 1   
    26    10    40 1   
    27    10    62 1   
    28    11    22 ar  
    29    11    23 ar  
    30    11    24 1   
    31    12    23 ar  
    32    12    41 1   
    33    13    14 1   
    34    13    42 1   
    35    13    43 1   
    36    13    44 1   
    37    14    45 1   
    38    14    61 1   
    39    15    61 1   
    40    16    62 2   
    41    17    18 2   
    42    17    19 1   
    43    17    62 1   
    44    18    48 1   
    45    19    20 1   
    46    19    21 1   
    47    20    49 1   
    48    20    50 1   
    49    20    51 1   
    50    24    52 1   
    51    25    26 ar  
    52    25    53 1   
    53    26    27 1   
    54    26    29 ar  
    55    27    28 1   
    56    28    54 1   
    57    28    55 1   
    58    28    56 1   
    59    29    57 1   
    60    30    31 1   
    61    31    58 1   
    62    31    59 1   
    63    31    60 1   
    64    46    61 1   
    65    47    61 1   
@<TRIPOS>SUBSTRUCTURE
     1 A1H         1 TEMP              0 ****  ****    0 ROOT
