@<TRIPOS>MOLECULE
A1H
   62    65     1     0     0
SMALL
No Charge or Current Charge


@<TRIPOS>ATOM
      1 C6          16.6590    -5.7980     9.1130 cy         1 A1H       0.144300
      2 C7          15.6170    -6.7640     9.7670 cy         1 A1H      -0.107400
      3 C8          14.8970    -6.6570     8.3830 cy         1 A1H       0.144300
      4 C10         11.1160    -1.7170    10.5340 cc         1 A1H       0.166000
      5 C11         10.4200    -0.6150    12.6960 ca         1 A1H      -0.244000
      6 C17         15.5180     0.1690    12.7730 ca         1 A1H       0.391000
      7 C18         15.7720    -0.9100    11.9150 ca         1 A1H      -0.254000
      8 C19         16.9930    -1.0110    11.2410 ca         1 A1H       0.199600
      9 C9          11.4270    -0.9990    11.7840 ca         1 A1H       0.147000
     10 N1          13.4140    -3.4610     7.4400 ns         1 A1H      -0.480900
     11 C14         12.9910    -0.0440    13.1860 ca         1 A1H       0.385900
     12 C12         10.8090     0.0660    13.8610 ca         1 A1H       0.143900
     13 C3          14.4590    -3.2720     5.2020 c3         1 A1H      -0.109100
     14 C2          14.2760    -4.1360     6.4670 c3         1 A1H       0.114700
     15 N5          15.4790    -5.2840     8.3610 nq         1 A1H      -0.709600
     16 O29         11.3940    -3.9760     6.5180 o          1 A1H      -0.613100
     17 C24         11.4340    -2.8010     8.6030 cd         1 A1H      -0.231600
     18 C23         12.0900    -2.1840     9.6320 cc         1 A1H      -0.147000
     19 N25         10.0810    -2.6660     8.9330 na         1 A1H       0.185800
     20 C27          8.9300    -3.1550     8.1590 c3         1 A1H       0.071900
     21 N26          9.8870    -1.9980    10.1370 nd         1 A1H      -0.499800
     22 N15         12.7170    -0.6930    12.0400 nb         1 A1H      -0.235000
     23 N13         12.1000     0.3560    14.1080 nb         1 A1H      -0.242000
     24 N16         14.3070     0.3190    13.4490 nu         1 A1H      -0.931900
     25 C22         16.5110     1.1310    12.9870 ca         1 A1H      -0.254000
     26 C21         17.7470     1.0340    12.3200 ca         1 A1H       0.199600
     27 O30         18.7560     1.9590    12.4850 os         1 A1H      -0.344100
     28 C33         18.6230     3.0950    13.3580 c3         1 A1H       0.148900
     29 C20         17.9830    -0.0320    11.4440 ca         1 A1H      -0.266000
     30 O31         17.1710    -2.0830    10.3930 os         1 A1H      -0.344100
     31 C32         18.3630    -2.2490     9.6060 c3         1 A1H       0.148900
     32 H62         17.1350    -5.0960     9.8060 h1         1 A1H       0.047950
     33 H61         17.4160    -6.3080     8.5020 h1         1 A1H       0.047950
     34 H71         15.0610    -6.3380    10.6100 hc         1 A1H       0.057700
     35 H72         15.9870    -7.7560    10.0430 hc         1 A1H       0.057700
     36 H81         15.2910    -7.3430     7.6230 h1         1 A1H       0.047950
     37 H82         13.8030    -6.7180     8.4230 h1         1 A1H       0.047950
     38 H11          9.3730    -0.8410    12.5130 ha         1 A1H       0.151000
     39 H18         15.0340    -1.6880    11.7690 ha         1 A1H       0.139000
     40 H13         13.8510    -3.0850     8.2690 hn         1 A1H       0.322500
     41 H12         10.0790     0.3850    14.6030 h4         1 A1H       0.023100
     42 H33         13.4910    -3.0580     4.7340 hc         1 A1H       0.043367
     43 H31         14.9420    -2.3190     5.4480 hc         1 A1H       0.043367
     44 H32         15.0830    -3.7950     4.4670 hc         1 A1H       0.043367
     45 H2          13.7810    -5.0700     6.1680 h1         1 A1H       0.082700
     46 H42         16.2240    -5.1130     6.3990 h1         1 A1H       0.033700
     47 H41         16.1980    -3.6040     7.3360 h1         1 A1H       0.033700
     48 H23         13.1610    -2.0640     9.7650 ha         1 A1H       0.162000
     49 H83          7.9960    -2.9000     8.6740 h1         1 A1H       0.067367
     50 H84          8.9340    -2.6900     7.1670 h1         1 A1H       0.067367
     51 H27          8.9980    -4.2440     8.0530 h1         1 A1H       0.067367
     52 H16         14.3720     0.9480    14.2480 hn         1 A1H       0.511000
     53 H22         16.3060     1.9550    13.6610 ha         1 A1H       0.139000
     54 H9A         19.5410     3.6960    13.3400 h1         1 A1H       0.040867
     55 H88         17.7910     3.7360    13.0400 h1         1 A1H       0.040867
     56 H89         18.4480     2.7740    14.3920 h1         1 A1H       0.040867
     57 H20         18.9410    -0.0840    10.9380 ha         1 A1H       0.132000
     58 H85         18.2870    -3.1500     8.9850 h1         1 A1H       0.040867
     59 H86         18.5130    -1.3900     8.9400 h1         1 A1H       0.040867
     60 H87         19.2450    -2.3540    10.2520 h1         1 A1H       0.040867
     61 C4          15.6350    -4.5200     7.1130 c3         1 A1H       0.150800
     62 C28         12.0410    -3.4640     7.4210 c          1 A1H       0.653700
@<TRIPOS>BOND
     1     1     2 1   
     2     1    15 1   
     3     1    32 1   
     4     1    33 1   
     5     2     3 1   
     6     2    34 1   
     7     2    35 1   
     8     3    15 1   
     9     3    36 1   
    10     3    37 1   
    11     4     9 1   
    12     4    18 1   
    13     4    21 2   
    14     5     9 ar  
    15     5    12 ar  
    16     5    38 1   
    17     6     7 ar  
    18     6    24 1   
    19     6    25 ar  
    20     7     8 ar  
    21     7    39 1   
    22     8    29 ar  
    23     8    30 1   
    24     9    22 ar  
    25    10    14 1   
    26    10    40 1   
    27    10    62 1   
    28    11    22 ar  
    29    11    23 ar  
    30    11    24 1   
    31    12    23 ar  
    32    12    41 1   
    33    13    14 1   
    34    13    42 1   
    35    13    43 1   
    36    13    44 1   
    37    14    45 1   
    38    14    61 1   
    39    15    61 1   
    40    16    62 2   
    41    17    18 2   
    42    17    19 1   
    43    17    62 1   
    44    18    48 1   
    45    19    20 1   
    46    19    21 1   
    47    20    49 1   
    48    20    50 1   
    49    20    51 1   
    50    24    52 1   
    51    25    26 ar  
    52    25    53 1   
    53    26    27 1   
    54    26    29 ar  
    55    27    28 1   
    56    28    54 1   
    57    28    55 1   
    58    28    56 1   
    59    29    57 1   
    60    30    31 1   
    61    31    58 1   
    62    31    59 1   
    63    31    60 1   
    64    46    61 1   
    65    47    61 1   
@<TRIPOS>SUBSTRUCTURE
     1 A1H         1 TEMP              0 ****  ****    0 ROOT
