@<TRIPOS>MOLECULE
A1H
   62    61     1     0     0
SMALL
abcg2


@<TRIPOS>ATOM
      1 O1           5.3540    -2.6870    -0.3990 oh         1 A1H      -0.650000
      2 C1           6.0080    -2.0550    -1.4700 c3         1 A1H       0.165600
      3 C2           5.6310    -0.5800    -1.5130 c3         1 A1H       0.167300
      4 O2           6.2360    -0.0790    -2.6850 oh         1 A1H      -0.660000
      5 C3           6.1370     0.2340    -0.3250 c3         1 A1H       0.134600
      6 O3           5.3690    -0.0990     0.8310 os         1 A1H      -0.427100
      7 C4           5.6330     0.5410     1.9620 c          1 A1H       0.594100
      8 O4           6.5000     1.3740     2.0700 o          1 A1H      -0.496000
      9 C5           4.7060     0.1330     3.0750 c3         1 A1H      -0.134400
     10 C6           3.7480     1.2720     3.4380 c3         1 A1H      -0.069400
     11 C7           2.8960     1.7380     2.2630 c3         1 A1H      -0.080400
     12 C8           1.7810     2.6880     2.6840 c3         1 A1H      -0.068400
     13 C9           1.0730     3.3680     1.5060 c3         1 A1H      -0.038200
     14 C10          0.5300     2.4000     0.5010 c2         1 A1H      -0.224200
     15 C11         -0.7600     2.1460     0.2950 c2         1 A1H      -0.216200
     16 C12         -1.2750     1.1390    -0.6850 c3         1 A1H      -0.041200
     17 C13         -1.8820    -0.1000    -0.0170 c3         1 A1H      -0.067400
     18 C14         -3.0550     0.1800     0.9200 c3         1 A1H      -0.072400
     19 C15         -4.2290     0.9170     0.2790 c3         1 A1H      -0.071400
     20 C16         -4.8310     0.2380    -0.9480 c3         1 A1H      -0.073400
     21 C17         -5.4000    -1.1500    -0.6750 c3         1 A1H      -0.075400
     22 C18         -6.0990    -1.7550    -1.8850 c3         1 A1H      -0.076400
     23 C19         -6.6820    -3.1370    -1.6180 c3         1 A1H      -0.075400
     24 C20         -7.3930    -3.7250    -2.8280 c3         1 A1H      -0.088100
     25 H1           5.6120    -3.6130    -0.4010 ho         1 A1H       0.446000
     26 H2           7.1020    -2.1350    -1.3870 h1         1 A1H       0.031700
     27 H3           5.7270    -2.4990    -2.4340 h1         1 A1H       0.031700
     28 H4           4.5360    -0.4960    -1.5620 h1         1 A1H       0.055700
     29 H5           5.8870     0.7990    -2.8650 ho         1 A1H       0.451000
     30 H6           7.1990     0.0370    -0.1530 h1         1 A1H       0.051200
     31 H7           6.0230     1.3010    -0.5430 h1         1 A1H       0.051200
     32 H8           4.1390    -0.7530     2.7920 hc         1 A1H       0.073700
     33 H9           5.3130    -0.1260     3.9460 hc         1 A1H       0.073700
     34 H10          3.1020     0.9170     4.2450 hc         1 A1H       0.049700
     35 H11          4.3130     2.1140     3.8440 hc         1 A1H       0.049700
     36 H12          3.5300     2.2360     1.5210 hc         1 A1H       0.044200
     37 H13          2.4670     0.8660     1.7600 hc         1 A1H       0.044200
     38 H14          1.0460     2.1400     3.2810 hc         1 A1H       0.039200
     39 H15          2.1920     3.4650     3.3360 hc         1 A1H       0.039200
     40 H16          0.2650     3.9970     1.8880 hc         1 A1H       0.043200
     41 H17          1.7860     4.0370     1.0140 hc         1 A1H       0.043200
     42 H18          1.2620     1.8590    -0.0950 ha         1 A1H       0.164000
     43 H19         -1.5000     2.6850     0.8850 ha         1 A1H       0.166000
     44 H20         -2.0220     1.6060    -1.3360 hc         1 A1H       0.042200
     45 H21         -0.4590     0.8200    -1.3380 hc         1 A1H       0.042200
     46 H22         -2.1940    -0.7970    -0.7990 hc         1 A1H       0.039200
     47 H23         -1.0960    -0.6110     0.5470 hc         1 A1H       0.039200
     48 H24         -3.3990    -0.7720     1.3360 hc         1 A1H       0.037200
     49 H25         -2.7080     0.7620     1.7790 hc         1 A1H       0.037200
     50 H26         -5.0120     1.0450     1.0330 hc         1 A1H       0.036700
     51 H27         -3.9170     1.9300     0.0050 hc         1 A1H       0.036700
     52 H28         -5.6300     0.8760    -1.3390 hc         1 A1H       0.036200
     53 H29         -4.0860     0.1730    -1.7480 hc         1 A1H       0.036200
     54 H30         -4.6020    -1.8250    -0.3490 hc         1 A1H       0.037700
     55 H31         -6.1060    -1.0910     0.1610 hc         1 A1H       0.037700
     56 H32         -6.9000    -1.0840    -2.2170 hc         1 A1H       0.036700
     57 H33         -5.3930    -1.8170    -2.7210 hc         1 A1H       0.036700
     58 H34         -5.8810    -3.8110    -1.2990 hc         1 A1H       0.036200
     59 H35         -7.3790    -3.0770    -0.7760 hc         1 A1H       0.036200
     60 H36         -7.7980    -4.7150    -2.6160 hc         1 A1H       0.031367
     61 H37         -8.2230    -3.0910    -3.1460 hc         1 A1H       0.031367
     62 H38         -6.7130    -3.8220    -3.6760 hc         1 A1H       0.031367
@<TRIPOS>BOND
     1     1     2 1   
     2     1    25 1   
     3     2     3 1   
     4     2    26 1   
     5     2    27 1   
     6     3     4 1   
     7     3     5 1   
     8     3    28 1   
     9     4    29 1   
    10     5     6 1   
    11     5    30 1   
    12     5    31 1   
    13     6     7 1   
    14     7     8 2   
    15     7     9 1   
    16     9    10 1   
    17     9    32 1   
    18     9    33 1   
    19    10    11 1   
    20    10    34 1   
    21    10    35 1   
    22    11    12 1   
    23    11    36 1   
    24    11    37 1   
    25    12    13 1   
    26    12    38 1   
    27    12    39 1   
    28    13    14 1   
    29    13    40 1   
    30    13    41 1   
    31    14    15 2   
    32    14    42 1   
    33    15    16 1   
    34    15    43 1   
    35    16    17 1   
    36    16    44 1   
    37    16    45 1   
    38    17    18 1   
    39    17    46 1   
    40    17    47 1   
    41    18    19 1   
    42    18    48 1   
    43    18    49 1   
    44    19    20 1   
    45    19    50 1   
    46    19    51 1   
    47    20    21 1   
    48    20    52 1   
    49    20    53 1   
    50    21    22 1   
    51    21    54 1   
    52    21    55 1   
    53    22    23 1   
    54    22    56 1   
    55    22    57 1   
    56    23    24 1   
    57    23    58 1   
    58    23    59 1   
    59    24    60 1   
    60    24    61 1   
    61    24    62 1   
@<TRIPOS>SUBSTRUCTURE
     1 A1H         1 TEMP              0 ****  ****    0 ROOT
