@<TRIPOS>MOLECULE
A1H
   54    55     1     0     0
SMALL
No Charge or Current Charge


@<TRIPOS>ATOM
      1 O2          46.3060     5.7270    69.7380 oh         1 A1H      -0.731000
      2 C9          47.2810     7.5670    66.5390 c3         1 A1H      -0.100100
      3 C8          47.2210     7.1090    68.0180 c3         1 A1H      -0.066400
      4 C6          42.0530    10.0360    68.4280 c3         1 A1H      -0.073100
      5 N3          43.4330     6.5660    68.9470 na         1 A1H       0.033300
      6 S1          44.6190     8.8070    68.3700 ss         1 A1H       0.836000
      7 C5          42.8630     8.7610    68.5740 cc         1 A1H      -0.208300
      8 C4          42.3850     7.4980    68.8870 cd         1 A1H      -0.179300
      9 C3          45.8310     5.0630    67.3800 c          1 A1H       0.701000
     10 C1          45.9770     6.2520    68.4310 c3         1 A1H       0.062300
     11 C2          44.6900     7.0680    68.6080 cc         1 A1H      -0.237600
     12 C13         41.6820     4.6330    73.2720 ca         1 A1H       0.167300
     13 C12         43.3090     5.5070    71.9240 ca         1 A1H       0.405900
     14 C11         42.6710     4.9780    70.7880 ca         1 A1H      -0.263300
     15 C10         41.4920     4.2470    71.0180 ca         1 A1H       0.134900
     16 C7          43.1870     5.1560    69.3560 c3         1 A1H       0.117900
     17 CM4         40.9390     7.1320    69.1640 c3         1 A1H      -0.011800
     18 N1          40.9930     4.0730    72.2570 nb         1 A1H      -0.251000
     19 N2          42.8250     5.3390    73.1620 nb         1 A1H      -0.300000
     20 O10         45.0510     5.1840    66.4440 o          1 A1H      -0.690000
     21 O1A         44.4680    13.1010    71.0630 o          1 A1H      -0.863500
     22 O1B         44.3370    12.9490    66.6180 o          1 A1H      -0.935500
     23 O2A         42.7090    13.5320    69.3640 o          1 A1H      -0.863500
     24 O2B         45.8740    13.9600    68.2400 o          1 A1H      -0.935500
     25 O3A         44.6170    11.8280    68.8540 os         1 A1H      -0.738800
     26 O3B         46.4090    11.8620    67.1820 o          1 A1H      -0.935500
     27 O7          42.9070    11.2220    70.4230 os         1 A1H      -0.610400
     28 O9          46.4240     4.0190    67.6270 o          1 A1H      -0.690000
     29 PA          43.6870    12.5450    69.9150 p5         1 A1H       1.441800
     30 PB          45.2980    12.6890    67.7240 p5         1 A1H       1.332900
     31 HO2         46.8060     4.8940    69.5560 ho         1 A1H       0.478000
     32 H92         48.1220     8.2550    66.3910 hc         1 A1H       0.061367
     33 H91         47.4350     6.7120    65.8690 hc         1 A1H       0.061367
     34 H9          46.3660     8.0810    66.2260 hc         1 A1H       0.061367
     35 H8          47.3110     7.9820    68.6750 hc         1 A1H       0.027200
     36 H81         48.1280     6.5170    68.2000 hc         1 A1H       0.027200
     37 H72         41.0110    11.5360    69.5980 h1         1 A1H       0.005700
     38 H71         41.2250     9.9940    70.4290 h1         1 A1H       0.005700
     39 H61         42.5540    10.7460    67.7610 hc         1 A1H       0.095200
     40 H62         41.1060     9.8130    67.9250 hc         1 A1H       0.095200
     41 H6          40.9310     3.7970    70.2000 h4         1 A1H       0.015100
     42 H7'1        44.1020     4.5670    69.2540 h1         1 A1H       0.090700
     43 H7'2        42.4710     4.7240    68.6480 h1         1 A1H       0.090700
     44 HM21        40.0400     4.3090    74.6620 hc         1 A1H       0.044033
     45 HM23        41.5640     3.5410    75.1390 hc         1 A1H       0.044033
     46 HM22        41.3540     5.2920    75.3180 hc         1 A1H       0.044033
     47 HM42        40.7600     7.0330    70.2410 hc         1 A1H       0.040033
     48 HM41        40.2430     7.8910    68.7910 hc         1 A1H       0.040033
     49 HM43        40.6590     6.1880    68.6840 hc         1 A1H       0.040033
     50 HN42        44.9740     6.3400    72.7400 hn         1 A1H       0.509500
     51 HN41        45.0470     6.1180    71.0280 hn         1 A1H       0.509500
     52 CM2         41.1300     4.4340    74.6730 c3         1 A1H      -0.126400
     53 C14         41.7250    10.7220    69.7760 c3         1 A1H       0.237600
     54 N4          44.4680     6.2030    71.8720 nv         1 A1H      -1.046900
@<TRIPOS>BOND
     1     1    10 1   
     2     1    31 1   
     3     2     3 1   
     4     2    32 1   
     5     2    33 1   
     6     2    34 1   
     7     3    10 1   
     8     3    35 1   
     9     3    36 1   
    10     4     7 1   
    11     4    39 1   
    12     4    40 1   
    13     4    53 1   
    14     5     8 1   
    15     5    11 2   
    16     5    16 1   
    17     6     7 1   
    18     6    11 1   
    19     7     8 2   
    20     8    17 1   
    21     9    10 1   
    22     9    20 1   
    23     9    28 1   
    24    10    11 1   
    25    12    18 ar  
    26    12    19 ar  
    27    12    52 1   
    28    13    14 ar  
    29    13    19 ar  
    30    13    54 1   
    31    14    15 ar  
    32    14    16 1   
    33    15    18 ar  
    34    15    41 1   
    35    16    42 1   
    36    16    43 1   
    37    17    47 1   
    38    17    48 1   
    39    17    49 1   
    40    21    29 1   
    41    22    30 1   
    42    23    29 1   
    43    24    30 1   
    44    25    29 1   
    45    25    30 1   
    46    26    30 1   
    47    27    29 1   
    48    27    53 1   
    49    37    53 1   
    50    38    53 1   
    51    44    52 1   
    52    45    52 1   
    53    46    52 1   
    54    50    54 1   
    55    51    54 1   
@<TRIPOS>SUBSTRUCTURE
     1 A1H         1 TEMP              0 ****  ****    0 ROOT
