@<TRIPOS>MOLECULE
A1H
   44    47     1     0     0
SMALL
abcg2


@<TRIPOS>ATOM
      1 C1          53.7250   -66.9190   -29.4780 c5         1 A1H       0.138300
      2 C11         50.9190   -64.7840   -28.9530 ca         1 A1H       0.145500
      3 C12         50.6060   -63.6760   -29.7250 ca         1 A1H      -0.104600
      4 C14         52.6920   -63.9370   -29.9140 cc         1 A1H       0.405700
      5 C16         48.8280   -65.0710   -28.3510 ca         1 A1H       0.183900
      6 C18         49.2500   -63.3030   -29.7600 ca         1 A1H       0.451900
      7 C2          54.9240   -67.4160   -28.6730 c5         1 A1H       0.104300
      8 C20         58.5910   -65.6390   -27.1100 c3         1 A1H       0.060600
      9 C21         60.0610   -66.0170   -27.0100 c3         1 A1H      -0.084700
     10 C22         60.6130   -65.7670   -25.6480 cc         1 A1H       0.207300
     11 C26         60.0650   -65.1080   -24.5750 cd         1 A1H      -0.217000
     12 C3          55.3400   -66.1250   -27.9580 c5         1 A1H       0.134300
     13 C5          53.0750   -65.9680   -28.4750 c5         1 A1H       0.314300
     14 C9          56.3440   -65.2790   -28.7320 c3         1 A1H       0.033600
     15 N13         51.7320   -63.1590   -30.3150 nd         1 A1H      -0.552100
     16 N15         50.0670   -65.5190   -28.2440 nb         1 A1H      -0.213000
     17 N17         48.3810   -64.0330   -29.0520 nb         1 A1H      -0.303000
     18 N19         48.8070   -62.2580   -30.4610 nv         1 A1H      -1.066900
     19 N23         61.8420   -66.1970   -25.2770 nc         1 A1H      -0.359000
     20 N24         62.0730   -65.8450   -24.0590 nd         1 A1H      -0.191800
     21 N25         61.0150   -65.1920   -23.6300 na         1 A1H      -0.007200
     22 N8          52.2690   -64.9420   -29.0860 na         1 A1H      -0.288300
     23 O4          54.1320   -65.3770   -27.7740 os         1 A1H      -0.452000
     24 O6          54.4660   -68.3950   -27.7770 oh         1 A1H      -0.688000
     25 O7          52.8000   -67.8710   -29.8930 oh         1 A1H      -0.670000
     26 S10         57.9950   -66.0170   -28.7840 ss         1 A1H      -0.426000
     27 H1          54.1070   -66.3330   -30.3260 h1         1 A1H       0.042700
     28 H4          53.7330   -63.8230   -30.1820 h5         1 A1H       0.061800
     29 H16         48.0720   -65.6200   -27.7980 h5         1 A1H       0.047100
     30 H2          55.7300   -67.7940   -29.3130 h1         1 A1H       0.069700
     31 H202        58.4540   -64.5720   -26.9240 h1         1 A1H       0.059700
     32 H201        58.0070   -66.1900   -26.3710 h1         1 A1H       0.059700
     33 H211        60.1920   -67.0730   -27.2600 hc         1 A1H       0.075700
     34 H212        60.6340   -65.4520   -27.7490 hc         1 A1H       0.075700
     35 H26         59.1240   -64.6110   -24.4160 h4         1 A1H       0.167000
     36 H3          55.7490   -66.3530   -26.9680 h1         1 A1H       0.073700
     37 H5          52.4040   -66.5200   -27.8080 h2         1 A1H       0.130700
     38 H91         56.0360   -65.1470   -29.7720 h1         1 A1H       0.082700
     39 H92         56.4180   -64.2840   -28.2890 h1         1 A1H       0.082700
     40 H191        47.8260   -62.0400   -30.4800 hn         1 A1H       0.507000
     41 H192        49.4300   -61.7090   -31.0270 hn         1 A1H       0.507000
     42 HO6         55.2090   -68.6820   -27.2360 ho         1 A1H       0.508000
     43 HO7         53.1640   -68.3530   -30.6430 ho         1 A1H       0.514000
     44 H6          60.9910   -64.8300   -22.6870 hn         1 A1H       0.380000
@<TRIPOS>BOND
     1     1     7 1   
     2     1    13 1   
     3     1    25 1   
     4     1    27 1   
     5     2     3 ar  
     6     2    16 ar  
     7     2    22 1   
     8     3     6 ar  
     9     3    15 1   
    10     4    15 2   
    11     4    22 1   
    12     4    28 1   
    13     5    16 ar  
    14     5    17 ar  
    15     5    29 1   
    16     6    17 ar  
    17     6    18 1   
    18     7    12 1   
    19     7    24 1   
    20     7    30 1   
    21     8     9 1   
    22     8    26 1   
    23     8    31 1   
    24     8    32 1   
    25     9    10 1   
    26     9    33 1   
    27     9    34 1   
    28    10    11 2   
    29    10    19 1   
    30    11    21 1   
    31    11    35 1   
    32    12    14 1   
    33    12    23 1   
    34    12    36 1   
    35    13    22 1   
    36    13    23 1   
    37    13    37 1   
    38    14    26 1   
    39    14    38 1   
    40    14    39 1   
    41    18    40 1   
    42    18    41 1   
    43    19    20 2   
    44    20    21 1   
    45    21    44 1   
    46    24    42 1   
    47    25    43 1   
@<TRIPOS>SUBSTRUCTURE
     1 A1H         1 TEMP              0 ****  ****    0 ROOT
