@<TRIPOS>MOLECULE
A1H
   60    63     1     0     0
SMALL
No Charge or Current Charge


@<TRIPOS>ATOM
      1 C1          13.1990    -2.2290    14.5460 ca         1 A1H      -0.246000
      2 C2          14.3230    -2.5320    13.7480 ca         1 A1H       0.144000
      3 C4          14.2860    -3.5870    12.7180 cc         1 A1H       0.171000
      4 C5          15.3690    -3.9130    11.8800 cc         1 A1H      -0.152000
      5 C6          14.9620    -4.9320    11.0630 cd         1 A1H      -0.234600
      6 C10         13.3220    -1.2090    15.5030 ca         1 A1H       0.145900
      7 C12         15.4980    -0.8970    14.8740 ca         1 A1H       0.388900
      8 C17         17.9820    -0.3180    14.5900 ca         1 A1H       0.330000
      9 C14         15.7550    -5.6140    10.0100 c          1 A1H       0.643700
     10 C18         18.7790     0.8320    14.4740 ca         1 A1H      -0.159000
     11 C19         20.1060     0.7430    14.0150 ca         1 A1H      -0.045300
     12 C20         20.6370    -0.5140    13.6770 ca         1 A1H      -0.142000
     13 C21         19.8560    -1.6770    13.8030 ca         1 A1H      -0.045300
     14 C22         18.5320    -1.5720    14.2660 ca         1 A1H      -0.159000
     15 C23         20.9570     1.9960    13.8800 c3         1 A1H      -0.046800
     16 C24         20.4460    -3.0350    13.4600 c3         1 A1H      -0.046800
     17 N13         16.6720    -0.1810    15.0630 nu         1 A1H      -0.930900
     18 N8          15.4760    -1.8500    13.9250 nb         1 A1H      -0.241000
     19 N11         14.4770    -0.5360    15.6680 nb         1 A1H      -0.243000
     20 N3          13.2230    -4.3360    12.4800 nd         1 A1H      -0.497800
     21 N7          13.6410    -5.1750    11.4540 na         1 A1H       0.186800
     22 O15         15.3360    -6.5350     9.3260 o          1 A1H      -0.601100
     23 N16         17.0270    -5.1180     9.8690 ns         1 A1H      -0.493900
     24 C25         18.0400    -5.5920     8.9050 c6         1 A1H       0.120700
     25 C26         19.0510    -4.4520     8.6020 c6         1 A1H      -0.094400
     26 C27         19.9400    -4.1080     9.8270 c6         1 A1H      -0.079400
     27 C28         20.6820    -5.3640    10.3480 c6         1 A1H      -0.072400
     28 C29         19.6940    -6.5150    10.6620 c6         1 A1H      -0.114400
     29 C30         18.8220    -6.8510     9.4230 c6         1 A1H       0.142500
     30 N31         17.9180    -7.9810     9.7380 n8         1 A1H      -0.982200
     31 H1          12.2590    -2.7610    14.4280 ha         1 A1H       0.151000
     32 H5          16.3370    -3.4220    11.9060 ha         1 A1H       0.156000
     33 H92         11.7530    -6.1260    11.4010 h1         1 A1H       0.069033
     34 H93         12.5850    -5.9910     9.8240 h1         1 A1H       0.069033
     35 H91         13.1500    -7.1800    11.0370 h1         1 A1H       0.069033
     36 H10         12.4890    -0.9270    16.1450 h4         1 A1H       0.024100
     37 H18         18.3640     1.8020    14.7310 ha         1 A1H       0.127000
     38 H20         21.6630    -0.5900    13.3210 ha         1 A1H       0.111000
     39 H22         17.9420    -2.4740    14.3900 ha         1 A1H       0.127000
     40 H23         20.8370     2.4440    12.8860 hc         1 A1H       0.041200
     41 H94         20.6780     2.7520    14.6240 hc         1 A1H       0.041200
     42 H95         22.0220     1.7750    14.0210 hc         1 A1H       0.041200
     43 H96         21.1490    -2.9620    12.6220 hc         1 A1H       0.041200
     44 H97         20.9880    -3.4530    14.3170 hc         1 A1H       0.041200
     45 H24         19.6670    -3.7530    13.1760 hc         1 A1H       0.041200
     46 H13         16.5210     0.6680    15.6060 hn         1 A1H       0.510000
     47 H16         17.2790    -4.3600    10.4860 hn         1 A1H       0.316500
     48 H25         17.5260    -5.8550     7.9680 h1         1 A1H       0.097700
     49 H98         19.6920    -4.7510     7.7620 hc         1 A1H       0.055200
     50 H26         18.5130    -3.5540     8.2680 hc         1 A1H       0.055200
     51 H27         20.6700    -3.3350     9.5510 hc         1 A1H       0.042200
     52 H99         19.3260    -3.6780    10.6300 hc         1 A1H       0.042200
     53 H28         21.4110    -5.6980     9.5970 hc         1 A1H       0.043200
     54 HA1         21.2600    -5.1120    11.2480 hc         1 A1H       0.043200
     55 HB1         19.0580    -6.2310    11.5120 hc         1 A1H       0.037700
     56 H29         20.2600    -7.4020    10.9770 hc         1 A1H       0.037700
     57 H30         19.4860    -7.1880     8.6110 h1         1 A1H       0.067700
     58 H31         17.8760    -8.0810    10.7570 hn         1 A1H       0.394500
     59 HC1         16.9610    -7.6860     9.4960 hn         1 A1H       0.394500
     60 C9          12.7240    -6.1800    10.8950 c3         1 A1H       0.070900
@<TRIPOS>BOND
     1     1     2 ar  
     2     1     6 ar  
     3     1    31 1   
     4     2     3 1   
     5     2    18 ar  
     6     3     4 1   
     7     3    20 2   
     8     4     5 2   
     9     4    32 1   
    10     5     9 1   
    11     5    21 1   
    12     6    19 ar  
    13     6    36 1   
    14     7    17 1   
    15     7    18 ar  
    16     7    19 ar  
    17     8    10 ar  
    18     8    14 ar  
    19     8    17 1   
    20     9    22 2   
    21     9    23 1   
    22    10    11 ar  
    23    10    37 1   
    24    11    12 ar  
    25    11    15 1   
    26    12    13 ar  
    27    12    38 1   
    28    13    14 ar  
    29    13    16 1   
    30    14    39 1   
    31    15    40 1   
    32    15    41 1   
    33    15    42 1   
    34    16    43 1   
    35    16    44 1   
    36    16    45 1   
    37    17    46 1   
    38    20    21 1   
    39    21    60 1   
    40    23    24 1   
    41    23    47 1   
    42    24    25 1   
    43    24    29 1   
    44    24    48 1   
    45    25    26 1   
    46    25    49 1   
    47    25    50 1   
    48    26    27 1   
    49    26    51 1   
    50    26    52 1   
    51    27    28 1   
    52    27    53 1   
    53    27    54 1   
    54    28    29 1   
    55    28    55 1   
    56    28    56 1   
    57    29    30 1   
    58    29    57 1   
    59    30    58 1   
    60    30    59 1   
    61    33    60 1   
    62    34    60 1   
    63    35    60 1   
@<TRIPOS>SUBSTRUCTURE
     1 A1H         1 TEMP              0 ****  ****    0 ROOT
