@<TRIPOS>MOLECULE
A1H
   53    55     1     0     0
SMALL
No Charge or Current Charge


@<TRIPOS>ATOM
      1 C1           8.5020    34.7790    35.3800 c3         1 A1H      -0.479100
      2 C2          10.3420    33.3150    33.6550 ca         1 A1H      -0.301500
      3 C3          11.2070    32.9270    34.7040 ca         1 A1H      -0.056000
      4 C7          10.2110    32.4690    32.5230 ca         1 A1H       0.000200
      5 C8           9.2970    32.8060    31.3980 ce         1 A1H      -0.101200
      6 C9           9.6040    32.9860    30.0710 cf         1 A1H      -0.029900
      7 C10         10.9500    32.8490    29.6080 ch         1 A1H       0.293700
      8 C11          8.5820    33.3370    29.0220 c          1 A1H       0.608300
      9 C12          6.1620    33.9170    28.6120 c3         1 A1H       0.142000
     10 C13          4.9750    34.4650    29.4160 cx         1 A1H      -0.108700
     11 C14          3.6710    34.6920    28.6780 cx         1 A1H      -0.105400
     12 C15          4.4890    35.8740    29.1310 cx         1 A1H      -0.105400
     13 C16          4.9270    33.9220    30.8230 ca         1 A1H       0.011700
     14 C19          4.9590    32.8530    33.4490 ca         1 A1H      -0.207300
     15 C20          4.5280    32.0670    32.3580 ca         1 A1H      -0.064000
     16 C21          4.5110    32.6000    31.0580 ca         1 A1H      -0.121500
     17 C22          4.9990    32.2590    34.8620 c3         1 A1H       0.357300
     18 F2           6.1430    31.5710    35.0710 f          1 A1H      -0.114667
     19 F            3.9750    31.4030    35.0840 f          1 A1H      -0.114667
     20 F1           4.9260    33.2060    35.8260 f          1 A1H      -0.114667
     21 C18          5.3770    34.1790    33.2090 ca         1 A1H      -0.064000
     22 C17          5.3630    34.7060    31.9080 ca         1 A1H      -0.121500
     23 N1           7.3160    33.6420    29.4690 ns         1 A1H      -0.509900
     24 O1           8.8370    33.3620    27.8250 o          1 A1H      -0.590100
     25 N           12.0630    32.7310    29.2730 n1         1 A1H      -0.437000
     26 P            9.4510    34.9170    33.8270 py         1 A1H       1.186500
     27 O            8.6070    35.3330    32.6720 o          1 A1H      -0.574000
     28 C           10.7170    36.1590    34.2660 c3         1 A1H      -0.479100
     29 C6          10.9400    31.2640    32.4660 ca         1 A1H      -0.097000
     30 C5          11.7970    30.8930    33.5120 ca         1 A1H      -0.068000
     31 C4          11.9300    31.7260    34.6320 ca         1 A1H      -0.113000
     32 H1           9.1810    34.6660    36.2310 hc         1 A1H       0.083533
     33 H2           7.8960    35.6800    35.5140 hc         1 A1H       0.083533
     34 H3           7.8480    33.9040    35.3200 hc         1 A1H       0.083533
     35 H4          11.3270    33.5550    35.5850 ha         1 A1H       0.109000
     36 H5           8.2630    32.9000    31.7280 ha         1 A1H       0.189000
     37 H8           6.4520    34.6290    27.8280 h1         1 A1H       0.054200
     38 H9           5.8660    32.9780    28.1250 h1         1 A1H       0.054200
     39 H10          3.6400    34.4770    27.6130 hc         1 A1H       0.080450
     40 H11          2.7440    34.4880    29.2090 hc         1 A1H       0.080450
     41 H12          5.0050    36.4530    28.3690 hc         1 A1H       0.080450
     42 H13          4.0980    36.4640    29.9560 hc         1 A1H       0.080450
     43 H14          4.2120    31.0370    32.5130 ha         1 A1H       0.128500
     44 H15          4.1860    31.9780    30.2270 ha         1 A1H       0.124500
     45 H16          5.7250    34.8070    34.0270 ha         1 A1H       0.128500
     46 H17          5.7080    35.7240    31.7410 ha         1 A1H       0.124500
     47 H18          7.1690    33.6740    30.4680 hn         1 A1H       0.371500
     48 H19         11.1500    35.9380    35.2470 hc         1 A1H       0.083533
     49 H20         11.5060    36.1450    33.5070 hc         1 A1H       0.083533
     50 H21         10.2510    37.1500    34.2890 hc         1 A1H       0.083533
     51 H22         10.8330    30.6050    31.6070 ha         1 A1H       0.129000
     52 H23         12.3540    29.9610    33.4560 ha         1 A1H       0.123000
     53 H24         12.5920    31.4400    35.4460 ha         1 A1H       0.120000
@<TRIPOS>BOND
     1     1    26 1   
     2     1    32 1   
     3     1    33 1   
     4     1    34 1   
     5     2     3 ar  
     6     2     4 ar  
     7     2    26 1   
     8     3    31 ar  
     9     3    35 1   
    10     4     5 1   
    11     4    29 ar  
    12     5     6 2   
    13     5    36 1   
    14     6     7 1   
    15     6     8 1   
    16     7    25 3   
    17     8    23 1   
    18     8    24 2   
    19     9    10 1   
    20     9    23 1   
    21     9    37 1   
    22     9    38 1   
    23    10    11 1   
    24    10    12 1   
    25    10    13 1   
    26    11    12 1   
    27    11    39 1   
    28    11    40 1   
    29    12    41 1   
    30    12    42 1   
    31    13    16 ar  
    32    13    22 ar  
    33    14    15 ar  
    34    14    17 1   
    35    14    21 ar  
    36    15    16 ar  
    37    15    43 1   
    38    16    44 1   
    39    17    18 1   
    40    17    19 1   
    41    17    20 1   
    42    21    22 ar  
    43    21    45 1   
    44    22    46 1   
    45    23    47 1   
    46    26    27 2   
    47    26    28 1   
    48    28    48 1   
    49    28    49 1   
    50    28    50 1   
    51    29    30 ar  
    52    29    51 1   
    53    30    31 ar  
    54    30    52 1   
    55    31    53 1   
@<TRIPOS>SUBSTRUCTURE
     1 A1H         1 TEMP              0 ****  ****    0 ROOT
