@<TRIPOS>MOLECULE
A1H
   30    32     1     0     0
SMALL
abcg2


@<TRIPOS>ATOM
      1 C1         -23.1480     2.4990    -5.0660 cc         1 A1H      -0.154000
      2 C2         -23.8230     1.8030    -3.9790 ca         1 A1H      -0.023000
      3 C3         -23.8940     0.4080    -3.9770 ca         1 A1H      -0.080000
      4 C11        -22.1300     4.1010    -6.1740 cc         1 A1H       0.393400
      5 C13        -26.8470     0.1710    -0.3030 ca         1 A1H       0.113100
      6 C14        -27.9240     0.6960    -1.0080 ca         1 A1H      -0.137000
      7 C15        -29.0550     1.1010    -0.3140 ca         1 A1H      -0.090500
      8 C16        -29.1190     0.9810     1.0690 ca         1 A1H      -0.125000
      9 C17        -28.0390     0.4500     1.7590 ca         1 A1H      -0.090500
     10 C18        -26.8970     0.0490     1.0790 ca         1 A1H      -0.137000
     11 C4         -24.5560    -0.2740    -2.9730 ca         1 A1H      -0.141000
     12 C5         -25.1470     0.4280    -1.9290 ca         1 A1H       0.127100
     13 C6         -25.0740     1.8150    -1.9000 ca         1 A1H      -0.141000
     14 C7         -24.4250     2.4890    -2.9220 ca         1 A1H      -0.080000
     15 O8         -25.7310    -0.3010    -0.9370 os         1 A1H      -0.253200
     16 C9         -22.8440     2.1070    -6.3470 cd         1 A1H       0.247900
     17 N10        -22.2120     3.1080    -7.0230 nd         1 A1H      -0.671000
     18 N12        -22.6810     3.7840    -4.9860 na         1 A1H      -0.296500
     19 H1         -23.4240    -0.1590    -4.7710 ha         1 A1H       0.114000
     20 H2         -21.6820     5.0640    -6.3610 h5         1 A1H       0.055100
     21 H3         -27.8890     0.7840    -2.0870 ha         1 A1H       0.128000
     22 H4         -29.8950     1.5080    -0.8630 ha         1 A1H       0.116000
     23 H5         -30.0060     1.2980     1.6020 ha         1 A1H       0.117000
     24 H6         -28.0770     0.3510     2.8360 ha         1 A1H       0.116000
     25 H7         -26.0510    -0.3630     1.6140 ha         1 A1H       0.128000
     26 H8         -24.6060    -1.3550    -2.9900 ha         1 A1H       0.130000
     27 H9         -25.5190     2.3800    -1.0900 ha         1 A1H       0.130000
     28 H10        -24.4040     3.5710    -2.8840 ha         1 A1H       0.114000
     29 H11        -23.0650     1.1580    -6.8130 h4         1 A1H       0.038100
     30 H12        -22.7030     4.3860    -4.1770 hn         1 A1H       0.352000
@<TRIPOS>BOND
     1     1     2 1   
     2     1    16 2   
     3     1    18 1   
     4     2     3 ar  
     5     2    14 ar  
     6     3    11 ar  
     7     3    19 1   
     8     4    17 2   
     9     4    18 1   
    10     4    20 1   
    11     5     6 ar  
    12     5    10 ar  
    13     5    15 1   
    14     6     7 ar  
    15     6    21 1   
    16     7     8 ar  
    17     7    22 1   
    18     8     9 ar  
    19     8    23 1   
    20     9    10 ar  
    21     9    24 1   
    22    10    25 1   
    23    11    12 ar  
    24    11    26 1   
    25    12    13 ar  
    26    12    15 1   
    27    13    14 ar  
    28    13    27 1   
    29    14    28 1   
    30    16    17 1   
    31    16    29 1   
    32    18    30 1   
@<TRIPOS>SUBSTRUCTURE
     1 A1H         1 TEMP              0 ****  ****    0 ROOT
