@<TRIPOS>MOLECULE
A1H
   55    58     1     0     0
SMALL
No Charge or Current Charge


@<TRIPOS>ATOM
      1 C14         83.5080   -14.1000    30.8420 cc         1 A1H       0.423700
      2 O4          84.1990   -15.0160    27.8640 os         1 A1H      -0.442000
      3 C12         81.9990   -12.5690    30.7100 ca         1 A1H      -0.096600
      4 C11         82.6520   -12.5340    29.5040 ca         1 A1H       0.128500
      5 C9          85.3930   -17.1730    27.9060 c3         1 A1H       0.031600
      6 C1          86.0650   -14.1210    29.0490 c5         1 A1H       0.134300
      7 C2          86.6100   -14.8050    27.7510 c5         1 A1H       0.142300
      8 C5          84.6130   -13.8210    28.5630 c5         1 A1H       0.278300
      9 C3          85.3780   -15.7090    27.3710 c5         1 A1H       0.138300
     10 C16         81.2810   -10.8410    28.8090 ca         1 A1H       0.172900
     11 C18         80.9370   -11.6630    30.9170 ca         1 A1H       0.447900
     12 C20         86.9030   -17.5680    30.2970 c3         1 A1H       0.135900
     13 C21         86.9860   -17.4510    31.8110 ca         1 A1H      -0.136300
     14 C22         87.3730   -16.2380    32.4070 ca         1 A1H      -0.105000
     15 C23         87.4520   -16.1160    33.8060 ca         1 A1H      -0.098800
     16 C24         87.1260   -17.2300    34.6110 ca         1 A1H      -0.050000
     17 C25         86.7330   -18.4590    34.0320 ca         1 A1H      -0.143600
     18 C26         86.6680   -18.5550    32.6230 ca         1 A1H      -0.047000
     19 C27         86.3840   -19.6520    34.9050 c          1 A1H       0.715600
     20 C30         87.8650   -14.8050    34.3920 ce         1 A1H      -0.120200
     21 C31         88.2460   -14.5850    35.6710 c2         1 A1H      -0.245200
     22 C32         88.6650   -13.2540    36.2430 c3         1 A1H       0.200800
     23 N13         82.5170   -13.5440    31.5680 nd         1 A1H      -0.555100
     24 N15         82.3130   -11.6720    28.5260 nb         1 A1H      -0.215000
     25 N17         80.5700   -10.7940    29.9620 nb         1 A1H      -0.311000
     26 N19         80.2230   -11.6190    32.0730 nv         1 A1H      -1.069900
     27 N8          83.6150   -13.5000    29.5820 na         1 A1H      -0.289300
     28 O28         86.0760   -20.7040    34.3620 o          1 A1H      -0.714000
     29 O29         86.4270   -19.5210    36.1200 o          1 A1H      -0.714000
     30 O33         90.0890   -13.1910    36.2790 oh         1 A1H      -0.654000
     31 O6          86.8960   -13.8540    26.7020 oh         1 A1H      -0.691000
     32 H141        84.1550   -14.9090    31.1630 h5         1 A1H       0.095800
     33 H92         84.5770   -17.7120    27.4070 h1         1 A1H       0.076200
     34 H91         86.3290   -17.6610    27.6050 h1         1 A1H       0.076200
     35 H11         86.0440   -14.8440    29.8710 h1         1 A1H       0.073700
     36 H21         87.5010   -15.4100    27.9690 h1         1 A1H       0.061700
     37 H51         84.6330   -12.9780    27.8590 h2         1 A1H       0.110700
     38 H31         85.2980   -15.7770    26.2780 h1         1 A1H       0.056700
     39 H161        80.9920   -10.1390    28.0280 h5         1 A1H       0.039100
     40 H202        87.5240   -16.7940    29.8310 h1         1 A1H       0.051200
     41 H201        87.2790   -18.5470    29.9730 h1         1 A1H       0.051200
     42 H221        87.6190   -15.3850    31.7780 ha         1 A1H       0.081000
     43 H241        87.1660   -17.1440    35.6930 ha         1 A1H       0.136000
     44 H261        86.3640   -19.4880    32.1530 ha         1 A1H       0.134000
     45 H322        88.2630   -12.4390    35.6260 h1         1 A1H       0.013200
     46 H321        88.2530   -13.1430    37.2550 h1         1 A1H       0.013200
     47 H191        79.3100   -11.1720    32.0510 hn         1 A1H       0.505000
     48 H192        80.3340   -12.4010    32.7130 hn         1 A1H       0.505000
     49 H331        90.3210   -12.3110    36.6490 ho         1 A1H       0.428000
     50 H61         87.5070   -14.2920    26.0660 ho         1 A1H       0.499000
     51 H71         86.3120   -12.5100    30.1750 ho         1 A1H       0.512000
     52 H301        87.8610   -13.9720    33.6870 ha         1 A1H       0.148000
     53 H311        88.2860   -15.3910    36.4020 ha         1 A1H       0.194000
     54 O7          86.8220   -12.9630    29.4650 oh         1 A1H      -0.680000
     55 S10         85.1500   -17.3750    29.7390 ss         1 A1H      -0.432000
@<TRIPOS>BOND
     1     1    23 2   
     2     1    27 1   
     3     1    32 1   
     4     2     8 1   
     5     2     9 1   
     6     3     4 ar  
     7     3    11 ar  
     8     3    23 1   
     9     4    24 ar  
    10     4    27 1   
    11     5     9 1   
    12     5    33 1   
    13     5    34 1   
    14     5    55 1   
    15     6     7 1   
    16     6     8 1   
    17     6    35 1   
    18     6    54 1   
    19     7     9 1   
    20     7    31 1   
    21     7    36 1   
    22     8    27 1   
    23     8    37 1   
    24     9    38 1   
    25    10    24 ar  
    26    10    25 ar  
    27    10    39 1   
    28    11    25 ar  
    29    11    26 1   
    30    12    13 1   
    31    12    40 1   
    32    12    41 1   
    33    12    55 1   
    34    13    14 ar  
    35    13    18 ar  
    36    14    15 ar  
    37    14    42 1   
    38    15    16 ar  
    39    15    20 1   
    40    16    17 ar  
    41    16    43 1   
    42    17    18 ar  
    43    17    19 1   
    44    18    44 1   
    45    19    28 1   
    46    19    29 1   
    47    20    21 2   
    48    20    52 1   
    49    21    22 1   
    50    21    53 1   
    51    22    30 1   
    52    22    45 1   
    53    22    46 1   
    54    26    47 1   
    55    26    48 1   
    56    30    49 1   
    57    31    50 1   
    58    51    54 1   
@<TRIPOS>SUBSTRUCTURE
     1 A1H         1 TEMP              0 ****  ****    0 ROOT
