@<TRIPOS>MOLECULE
A1H
   47    50     1     0     0
SMALL
No Charge or Current Charge


@<TRIPOS>ATOM
      1 C1          54.0410   -67.1880   -29.8100 c5         1 A1H       0.085300
      2 C11         51.0190   -64.8350   -29.2910 ca         1 A1H       0.133500
      3 C12         50.9060   -63.6580   -29.9860 ca         1 A1H      -0.100600
      4 C14         52.9260   -64.3200   -30.3240 cc         1 A1H       0.415700
      5 C16         48.8480   -64.6360   -28.5990 ca         1 A1H       0.178900
      6 C18         49.6700   -62.9800   -29.9470 ca         1 A1H       0.449900
      7 C2          54.9190   -67.7860   -28.6750 c5         1 A1H       0.155300
      8 C20         57.8350   -66.1370   -26.1440 c3         1 A1H       0.144900
      9 C21         59.3100   -66.4380   -25.9210 ca         1 A1H      -0.134300
     10 C22         59.7700   -67.7670   -25.9190 ca         1 A1H      -0.117000
     11 C23         61.1300   -68.0400   -25.7100 ca         1 A1H      -0.150000
     12 C24         62.0400   -66.9890   -25.5040 ca         1 A1H      -0.073000
     13 C25         61.5990   -65.6440   -25.5040 ca         1 A1H      -0.139600
     14 C26         60.2240   -65.3850   -25.7160 ca         1 A1H      -0.061000
     15 C27         62.5800   -64.5050   -25.2830 c          1 A1H       0.715600
     16 C3          54.8100   -66.6480   -27.6080 c5         1 A1H       0.168300
     17 C5          52.8890   -66.5010   -28.9800 c5         1 A1H       0.279300
     18 C9          55.6930   -65.3980   -27.8760 c3         1 A1H       0.018600
     19 N13         52.0910   -63.3120   -30.6410 nd         1 A1H      -0.559100
     20 N15         49.9960   -65.3540   -28.5840 nb         1 A1H      -0.214000
     21 N17         48.6320   -63.4650   -29.2480 nb         1 A1H      -0.308000
     22 N19         49.4560   -61.8050   -30.5970 nv         1 A1H      -1.069900
     23 N8          52.2990   -65.2650   -29.5010 na         1 A1H      -0.291300
     24 O28         62.1530   -63.3590   -25.2650 o          1 A1H      -0.718000
     25 O29         63.7640   -64.7720   -25.1270 o          1 A1H      -0.718000
     26 O4          53.4170   -66.2570   -27.6520 os         1 A1H      -0.454000
     27 O6          54.3590   -69.0330   -28.2400 oh         1 A1H      -0.707000
     28 O7          53.5800   -68.2240   -30.7030 oh         1 A1H      -0.706000
     29 S10         57.5110   -65.7660   -27.9280 ss         1 A1H      -0.432000
     30 H1          54.6280   -66.4470   -30.3690 h1         1 A1H       0.049700
     31 H4          53.9560   -64.4110   -30.6450 h5         1 A1H       0.071800
     32 H16         48.0120   -65.0400   -28.0310 h5         1 A1H       0.044100
     33 H2          55.9560   -67.9290   -29.0100 h1         1 A1H       0.081700
     34 H202        57.2300   -67.0000   -25.8360 h1         1 A1H       0.055200
     35 H201        57.5340   -65.2740   -25.5360 h1         1 A1H       0.055200
     36 H22         59.0740   -68.5870   -26.0790 ha         1 A1H       0.088000
     37 H23         61.4830   -69.0690   -25.7090 ha         1 A1H       0.088000
     38 H24         63.0900   -67.2240   -25.3450 ha         1 A1H       0.128000
     39 H26         59.8590   -64.3600   -25.7240 ha         1 A1H       0.129000
     40 H3          55.0420   -67.0290   -26.6050 h1         1 A1H       0.102700
     41 H5          52.0550   -67.2090   -28.8900 h2         1 A1H       0.115700
     42 H92         55.5070   -64.6570   -27.0870 h1         1 A1H       0.072700
     43 H91         55.4100   -64.9400   -28.8310 h1         1 A1H       0.072700
     44 HN19        48.6740   -61.2300   -30.2960 hn         1 A1H       0.505500
     45 H7          50.2780   -61.3140   -30.9420 hn         1 A1H       0.505500
     46 HO6         53.8910   -69.3570   -29.0510 ho         1 A1H       0.523000
     47 HO7         53.2170   -67.7880   -31.5130 ho         1 A1H       0.520000
@<TRIPOS>BOND
     1     1     7 1   
     2     1    17 1   
     3     1    28 1   
     4     1    30 1   
     5     2     3 ar  
     6     2    20 ar  
     7     2    23 1   
     8     3     6 ar  
     9     3    19 1   
    10     4    19 2   
    11     4    23 1   
    12     4    31 1   
    13     5    20 ar  
    14     5    21 ar  
    15     5    32 1   
    16     6    21 ar  
    17     6    22 1   
    18     7    16 1   
    19     7    27 1   
    20     7    33 1   
    21     8     9 1   
    22     8    29 1   
    23     8    34 1   
    24     8    35 1   
    25     9    10 ar  
    26     9    14 ar  
    27    10    11 ar  
    28    10    36 1   
    29    11    12 ar  
    30    11    37 1   
    31    12    13 ar  
    32    12    38 1   
    33    13    14 ar  
    34    13    15 1   
    35    14    39 1   
    36    15    24 1   
    37    15    25 1   
    38    16    18 1   
    39    16    26 1   
    40    16    40 1   
    41    17    23 1   
    42    17    26 1   
    43    17    41 1   
    44    18    29 1   
    45    18    42 1   
    46    18    43 1   
    47    22    44 1   
    48    22    45 1   
    49    27    46 1   
    50    28    47 1   
@<TRIPOS>SUBSTRUCTURE
     1 A1H         1 TEMP              0 ****  ****    0 ROOT
