@<TRIPOS>MOLECULE
A1H
   57    61     1     0     0
SMALL
No Charge or Current Charge


@<TRIPOS>ATOM
      1 C1          85.5650   -14.0870    29.8300 c5         1 A1H       0.132300
      2 C11         82.2720   -12.7720    28.5030 ca         1 A1H       0.130500
      3 C12         81.3940   -12.0880    29.3070 ca         1 A1H      -0.098600
      4 C14         82.7010   -13.1340    30.6620 cc         1 A1H       0.421700
      5 C16         81.2250   -11.9390    26.6480 ca         1 A1H       0.172900
      6 C18         80.4000   -11.3030    28.6860 ca         1 A1H       0.445900
      7 C2          86.2950   -15.4020    29.4310 c5         1 A1H       0.149300
      8 C20         86.0690   -16.1020    33.0440 c3         1 A1H       0.136900
      9 C21         86.7660   -17.4340    33.2890 ca         1 A1H      -0.128300
     10 C22         86.1990   -18.3810    34.1610 ca         1 A1H      -0.120000
     11 C23         86.8340   -19.6140    34.3830 ca         1 A1H      -0.121000
     12 C24         88.0570   -19.9430    33.7470 cp         1 A1H      -0.020000
     13 C25         88.6300   -18.9620    32.8820 ca         1 A1H      -0.103600
     14 C26         87.9870   -17.7280    32.6550 ca         1 A1H      -0.095000
     15 C27         89.9760   -19.2610    32.2590 c          1 A1H       0.711600
     16 C3          85.1000   -16.4220    29.3970 c5         1 A1H       0.135300
     17 C30         88.6480   -21.2980    33.9790 cp         1 A1H       0.010000
     18 C31         88.9770   -22.1540    32.8970 ca         1 A1H      -0.084500
     19 C32         89.5040   -23.4370    33.1240 ca         1 A1H      -0.121000
     20 C33         89.7060   -23.8920    34.4370 ca         1 A1H      -0.126000
     21 C34         89.3760   -23.0650    35.5230 ca         1 A1H      -0.121000
     22 C35         88.8470   -21.7820    35.2950 ca         1 A1H      -0.084500
     23 C5          84.2580   -14.2580    28.9900 c5         1 A1H       0.274300
     24 C9          84.8940   -17.2750    30.6810 c3         1 A1H       0.053600
     25 N13         81.6420   -12.3010    30.6670 nd         1 A1H      -0.570100
     26 N15         82.2130   -12.7140    27.1580 nb         1 A1H      -0.207000
     27 N17         80.3080   -11.2270    27.3490 nb         1 A1H      -0.310000
     28 N19         79.4790   -10.5920    29.3890 nv         1 A1H      -1.072900
     29 N8          83.1080   -13.4330    29.3570 na         1 A1H      -0.283300
     30 O28         90.9070   -19.5740    32.9880 o          1 A1H      -0.707500
     31 O29         90.1050   -19.0520    31.0610 o          1 A1H      -0.707500
     32 O4          83.8990   -15.6470    29.1330 os         1 A1H      -0.452000
     33 O6          86.9160   -15.2420    28.1460 oh         1 A1H      -0.699000
     34 O7          86.3470   -12.9260    29.4790 oh         1 A1H      -0.672000
     35 S10         84.4200   -16.3310    32.2220 ss         1 A1H      -0.490000
     36 H36         85.3430   -14.0810    30.9040 h1         1 A1H       0.057700
     37 H44         83.1970   -13.5420    31.5360 h5         1 A1H       0.088800
     38 H45         81.1620   -11.8820    25.5630 h5         1 A1H       0.041100
     39 H37         87.0450   -15.6860    30.1820 h1         1 A1H       0.080700
     40 H48         86.7000   -15.4520    32.4240 h1         1 A1H       0.063200
     41 H49         85.9150   -15.5930    34.0040 h1         1 A1H       0.063200
     42 H50         85.2560   -18.1660    34.6590 ha         1 A1H       0.098000
     43 H51         86.3630   -20.3370    35.0440 ha         1 A1H       0.097000
     44 H52         88.4490   -16.9980    31.9950 ha         1 A1H       0.113000
     45 H38         85.2430   -17.1250    28.5650 h1         1 A1H       0.070700
     46 H53         88.8110   -21.8190    31.8760 ha         1 A1H       0.117500
     47 H54         89.7530   -24.0790    32.2820 ha         1 A1H       0.096500
     48 H55         90.1140   -24.8850    34.6130 ha         1 A1H       0.092000
     49 H56         89.5270   -23.4180    36.5410 ha         1 A1H       0.096500
     50 H57         88.5940   -21.1510    36.1430 ha         1 A1H       0.117500
     51 H39         84.4730   -14.0480    27.9340 h2         1 A1H       0.113700
     52 H43         84.0880   -17.9900    30.4710 h1         1 A1H       0.094200
     53 H42         85.7980   -17.8680    30.8660 h1         1 A1H       0.094200
     54 H47         78.6320   -10.3010    28.9070 hn         1 A1H       0.503000
     55 H46         79.3900   -10.8070    30.3800 hn         1 A1H       0.503000
     56 H40         87.1770   -14.2880    28.1260 ho         1 A1H       0.517000
     57 H41         85.8840   -12.1340    29.8400 ho         1 A1H       0.504000
@<TRIPOS>BOND
     1     1     7 1   
     2     1    23 1   
     3     1    34 1   
     4     1    36 1   
     5     2     3 ar  
     6     2    26 ar  
     7     2    29 1   
     8     3     6 ar  
     9     3    25 1   
    10     4    25 2   
    11     4    29 1   
    12     4    37 1   
    13     5    26 ar  
    14     5    27 ar  
    15     5    38 1   
    16     6    27 ar  
    17     6    28 1   
    18     7    16 1   
    19     7    33 1   
    20     7    39 1   
    21     8     9 1   
    22     8    35 1   
    23     8    40 1   
    24     8    41 1   
    25     9    10 ar  
    26     9    14 ar  
    27    10    11 ar  
    28    10    42 1   
    29    11    12 ar  
    30    11    43 1   
    31    12    13 ar  
    32    12    17 1   
    33    13    14 ar  
    34    13    15 1   
    35    14    44 1   
    36    15    30 1   
    37    15    31 1   
    38    16    24 1   
    39    16    32 1   
    40    16    45 1   
    41    17    18 ar  
    42    17    22 ar  
    43    18    19 ar  
    44    18    46 1   
    45    19    20 ar  
    46    19    47 1   
    47    20    21 ar  
    48    20    48 1   
    49    21    22 ar  
    50    21    49 1   
    51    22    50 1   
    52    23    29 1   
    53    23    32 1   
    54    23    51 1   
    55    24    35 1   
    56    24    52 1   
    57    24    53 1   
    58    28    54 1   
    59    28    55 1   
    60    33    56 1   
    61    34    57 1   
@<TRIPOS>SUBSTRUCTURE
     1 A1H         1 TEMP              0 ****  ****    0 ROOT
