@<TRIPOS>MOLECULE
A1H
   62    67     1     0     0
SMALL
No Charge or Current Charge


@<TRIPOS>ATOM
      1 C1          33.3790     9.4870     1.3650 c          1 A1H       0.712600
      2 C2          33.6260     8.0350     0.9800 ca         1 A1H      -0.126600
      3 C3          34.6460     7.6910     0.0610 ca         1 A1H      -0.094500
      4 C11         32.3490     3.8010    -1.7290 c5         1 A1H       0.169500
      5 C13         34.0000     2.1130    -1.9180 c5         1 A1H       0.172800
      6 C14         32.6390     1.7770    -2.6420 c5         1 A1H       0.143500
      7 C16         31.4550     2.8150    -0.8780 c5         1 A1H       0.114800
      8 C17         32.2040     3.1770    -3.1310 c5         1 A1H      -0.119400
      9 C18         30.3750     0.8440    -2.0190 c3         1 A1H       0.217100
     10 C19         29.4330     0.5030    -0.8680 ca         1 A1H      -0.074300
     11 C20         28.1900     1.1560    -0.7430 ca         1 A1H      -0.089000
     12 C21         27.3250     0.8390     0.3200 ca         1 A1H      -0.122000
     13 C22         27.7030    -0.1300     1.2710 ca         1 A1H       0.085100
     14 C23         28.9340    -0.7920     1.1420 ca         1 A1H      -0.122000
     15 C24         29.7980    -0.4750     0.0790 ca         1 A1H      -0.089000
     16 C26         26.1080     0.4570     2.9920 ca         1 A1H       0.162100
     17 C27         24.8250     0.0950     3.4240 ca         1 A1H      -0.173000
     18 C28         24.0290     1.0130     4.1310 ca         1 A1H      -0.038500
     19 C29         24.5160     2.3080     4.4220 ca         1 A1H      -0.179500
     20 C30         25.8160     2.6590     3.9940 ca         1 A1H      -0.038500
     21 C4          34.8730     6.3500    -0.2940 ca         1 A1H      -0.129500
     22 C5          34.0880     5.3220     0.2590 ca         1 A1H      -0.132300
     23 C6          33.0710     5.6540     1.1740 ca         1 A1H      -0.129500
     24 C7          32.8420     6.9940     1.5310 ca         1 A1H      -0.094500
     25 O8          32.4870     9.7380     2.1630 o          1 A1H      -0.721000
     26 O9          34.0820    10.3540     0.8640 o          1 A1H      -0.721000
     27 C10         34.3360     3.8660    -0.1310 c3         1 A1H       0.240100
     28 N12         33.8010     3.5280    -1.4670 n3         1 A1H      -0.733600
     29 N15         31.6320     1.4880    -1.5660 n3         1 A1H      -0.728600
     30 O25         26.8700    -0.4670     2.3130 os         1 A1H      -0.255200
     31 C31         26.6090     1.7380     3.2870 ca         1 A1H      -0.173000
     32 O32         22.4390     2.9050     5.5560 os         1 A1H      -0.261000
     33 C33         23.6910     3.2740     5.1600 cc         1 A1H       0.514500
     34 N34         24.0370     4.5080     5.5000 nd         1 A1H      -0.679000
     35 C35         22.9270     4.9850     6.1690 cd         1 A1H       0.234900
     36 C36         21.9680     4.0070     6.1960 cc         1 A1H       0.078900
     37 H1          35.2680     8.4650    -0.3840 ha         1 A1H       0.126000
     38 H2          32.0580     4.8600    -1.6530 h1         1 A1H       0.108700
     39 H3          34.1910     1.4220    -1.0860 h1         1 A1H       0.043700
     40 H4          34.8480     2.0440    -2.6130 h1         1 A1H       0.043700
     41 H5          32.7200     1.0010    -3.4160 h1         1 A1H       0.065700
     42 H6          30.4070     3.1460    -0.9030 h1         1 A1H       0.053200
     43 H7          31.7570     2.7800     0.1770 h1         1 A1H       0.053200
     44 H8          32.8820     3.6120    -3.8740 hc         1 A1H       0.059200
     45 H9          31.1830     3.2170    -3.5270 hc         1 A1H       0.059200
     46 H10         30.6120    -0.0880    -2.5510 h1         1 A1H       0.036200
     47 H11         29.8500     1.4910    -2.7340 h1         1 A1H       0.036200
     48 H12         27.8930     1.9090    -1.4700 ha         1 A1H       0.126000
     49 H13         26.3650     1.3420     0.4000 ha         1 A1H       0.125500
     50 H14         29.2210    -1.5480     1.8690 ha         1 A1H       0.125500
     51 H15         30.7560    -0.9830    -0.0100 ha         1 A1H       0.126000
     52 H16         24.4440    -0.8990     3.2070 ha         1 A1H       0.133500
     53 H17         23.0340     0.7100     4.4520 ha         1 A1H       0.131500
     54 H18         26.2190     3.6470     4.2110 ha         1 A1H       0.131500
     55 H19         35.6590     6.1080    -1.0050 ha         1 A1H       0.088500
     56 H20         32.4550     4.8710     1.6100 ha         1 A1H       0.088500
     57 H21         32.0490     7.2210     2.2400 ha         1 A1H       0.126000
     58 H23         33.8960     3.2110     0.6320 h1         1 A1H       0.024700
     59 H24         35.4190     3.6830    -0.1140 h1         1 A1H       0.024700
     60 H27         27.6110     2.0200     2.9750 ha         1 A1H       0.133500
     61 H28         22.8820     5.9850     6.5840 h4         1 A1H       0.047100
     62 H29         20.9710     3.9740     6.6130 h4         1 A1H       0.061100
@<TRIPOS>BOND
     1     1     2 1   
     2     1    25 1   
     3     1    26 1   
     4     2     3 ar  
     5     2    24 ar  
     6     3    21 ar  
     7     3    37 1   
     8     4     7 1   
     9     4     8 1   
    10     4    28 1   
    11     4    38 1   
    12     5     6 1   
    13     5    28 1   
    14     5    39 1   
    15     5    40 1   
    16     6     8 1   
    17     6    29 1   
    18     6    41 1   
    19     7    29 1   
    20     7    42 1   
    21     7    43 1   
    22     8    44 1   
    23     8    45 1   
    24     9    10 1   
    25     9    29 1   
    26     9    46 1   
    27     9    47 1   
    28    10    11 ar  
    29    10    15 ar  
    30    11    12 ar  
    31    11    48 1   
    32    12    13 ar  
    33    12    49 1   
    34    13    14 ar  
    35    13    30 1   
    36    14    15 ar  
    37    14    50 1   
    38    15    51 1   
    39    16    17 ar  
    40    16    30 1   
    41    16    31 ar  
    42    17    18 ar  
    43    17    52 1   
    44    18    19 ar  
    45    18    53 1   
    46    19    20 ar  
    47    19    33 1   
    48    20    31 ar  
    49    20    54 1   
    50    21    22 ar  
    51    21    55 1   
    52    22    23 ar  
    53    22    27 1   
    54    23    24 ar  
    55    23    56 1   
    56    24    57 1   
    57    27    28 1   
    58    27    58 1   
    59    27    59 1   
    60    31    60 1   
    61    32    33 1   
    62    32    36 1   
    63    33    34 2   
    64    34    35 1   
    65    35    36 2   
    66    35    61 1   
    67    36    62 1   
@<TRIPOS>SUBSTRUCTURE
     1 A1H         1 TEMP              0 ****  ****    0 ROOT
