@<TRIPOS>MOLECULE
A1H
   27    28     1     0     0
SMALL
No Charge or Current Charge


@<TRIPOS>ATOM
      1 C2          64.5260    -6.5830    -0.7020 c5         1 A1H       0.068700
      2 C4          62.8010    -4.9680    -1.8600 c6         1 A1H      -0.077400
      3 C5          63.2720    -3.8330    -0.9040 c6         1 A1H      -0.057700
      4 C6          62.9360    -2.4280    -1.4930 c3         1 A1H       0.170600
      5 C7          64.7840    -4.0160    -0.5650 c6         1 A1H       0.153300
      6 C8          65.0130    -5.3780     0.1580 c6         1 A1H       0.112300
      7 N1          64.1750    -7.7230     0.1420 ns         1 A1H      -0.508900
      8 C1          62.8560    -7.7090     0.4940 c          1 A1H       0.676100
      9 C3          63.1110    -6.3850    -1.3180 c5         1 A1H       0.163300
     10 O2          63.7130    -2.1240    -2.6590 oh         1 A1H      -0.670000
     11 O3          65.2600    -2.9490     0.2740 oh         1 A1H      -0.662000
     12 O4          66.4020    -5.5200     0.4960 oh         1 A1H      -0.663000
     13 O5          62.2190    -6.7670    -0.2540 os         1 A1H      -0.426100
     14 H1          65.2700    -6.8200    -1.4760 h1         1 A1H       0.096700
     15 H2          63.2950    -4.8540    -2.8350 hc         1 A1H       0.070200
     16 H3          61.7230    -4.8810    -2.0540 hc         1 A1H       0.070200
     17 H4          62.6940    -3.9070     0.0280 hc         1 A1H       0.072700
     18 H5          63.1070    -1.6690    -0.7180 h1         1 A1H       0.030200
     19 H6          61.8650    -2.4010    -1.7350 h1         1 A1H       0.030200
     20 H7          65.3540    -4.0270    -1.5080 h1         1 A1H       0.058700
     21 H8          64.4150    -5.3520     1.0820 h1         1 A1H       0.051700
     22 H9          64.8160    -8.3110     0.6600 hn         1 A1H       0.339500
     23 H10         62.9640    -7.1020    -2.1380 h1         1 A1H       0.073700
     24 H11         63.3780    -1.2700    -3.0130 ho         1 A1H       0.447000
     25 H12         65.2720    -2.1410    -0.2860 ho         1 A1H       0.450000
     26 H13         66.6790    -4.6200     0.7880 ho         1 A1H       0.455000
     27 O1          62.3420    -8.4120     1.3460 o          1 A1H      -0.525000
@<TRIPOS>BOND
     1     1     6 1   
     2     1     7 1   
     3     1     9 1   
     4     1    14 1   
     5     2     3 1   
     6     2     9 1   
     7     2    15 1   
     8     2    16 1   
     9     3     4 1   
    10     3     5 1   
    11     3    17 1   
    12     4    10 1   
    13     4    18 1   
    14     4    19 1   
    15     5     6 1   
    16     5    11 1   
    17     5    20 1   
    18     6    12 1   
    19     6    21 1   
    20     7     8 1   
    21     7    22 1   
    22     8    13 1   
    23     8    27 2   
    24     9    13 1   
    25     9    23 1   
    26    10    24 1   
    27    11    25 1   
    28    12    26 1   
@<TRIPOS>SUBSTRUCTURE
     1 A1H         1 TEMP              0 ****  ****    0 ROOT
