@<TRIPOS>MOLECULE
A1H
   58    62     1     0     0
SMALL
abcg2


@<TRIPOS>ATOM
      1 C1         -87.3250    15.3520     3.0030 c5         1 A1H       0.132300
      2 C11        -84.8570    13.1060     4.2200 ca         1 A1H       0.125500
      3 C12        -84.4340    13.0720     5.5400 ca         1 A1H      -0.096600
      4 C14        -85.0570    15.0600     5.1880 cc         1 A1H       0.418700
      5 C16        -84.4050    10.9780     3.9250 ca         1 A1H       0.173900
      6 C18        -83.9870    11.8280     6.0210 ca         1 A1H       0.448900
      7 C2         -87.4910    16.3050     1.8310 c5         1 A1H       0.142300
      8 C20        -87.9780    18.7310     4.4430 c3         1 A1H       0.134900
      9 C21        -88.2150    18.7660     5.9250 ca         1 A1H      -0.132300
     10 C22        -88.0960    17.5940     6.6660 ca         1 A1H      -0.106000
     11 C23        -88.2720    17.5950     8.0480 cp         1 A1H      -0.073000
     12 C24        -88.5880    18.8020     8.6730 ca         1 A1H      -0.058000
     13 C25        -88.7260    19.9830     7.9540 ca         1 A1H      -0.138600
     14 C26        -88.5270    19.9530     6.5750 ca         1 A1H      -0.052000
     15 C27        -89.0720    21.2890     8.6690 c          1 A1H       0.715600
     16 C3         -86.1070    16.9770     1.7780 c5         1 A1H       0.136300
     17 C30        -88.1060    16.3520     8.8270 cp         1 A1H      -0.040000
     18 C31        -87.1290    15.4140     8.4870 ca         1 A1H      -0.068000
     19 C32        -86.9520    14.2500     9.2130 ca         1 A1H      -0.178500
     20 C33        -87.7570    13.9910    10.3200 ca         1 A1H       0.115100
     21 C34        -88.7390    14.9130    10.6750 ca         1 A1H      -0.178500
     22 C35        -88.9050    16.0730     9.9350 ca         1 A1H      -0.068000
     23 C5         -85.8670    14.9160     2.8100 c5         1 A1H       0.278300
     24 C9         -85.9950    18.3630     2.3970 c3         1 A1H       0.031600
     25 N13        -84.5620    14.3060     6.1240 nd         1 A1H      -0.560100
     26 N15        -84.8620    12.0860     3.3660 nb         1 A1H      -0.217000
     27 N17        -83.9820    10.7940     5.1730 nb         1 A1H      -0.310000
     28 N19        -83.5820    11.6460     7.2790 nv         1 A1H      -1.067900
     29 N8         -85.2590    14.3950     4.0070 na         1 A1H      -0.289300
     30 O28        -89.1900    21.2290     9.9080 o          1 A1H      -0.714500
     31 O29        -89.2080    22.2970     7.9490 o          1 A1H      -0.714500
     32 O36        -87.5460    12.8500    11.0030 oh         1 A1H      -0.547100
     33 O4         -85.1950    16.0770     2.4100 os         1 A1H      -0.441000
     34 O6         -87.7430    15.5310     0.6860 oh         1 A1H      -0.690000
     35 O7         -88.2490    14.3140     2.9970 oh         1 A1H      -0.678000
     36 S10        -86.1850    18.4900     4.1950 ss         1 A1H      -0.433000
     37 H37        -87.3740    15.9430     3.9270 h1         1 A1H       0.069700
     38 H1         -85.2900    16.1110     5.2880 h5         1 A1H       0.098800
     39 H46        -84.3710    10.1010     3.2880 h5         1 A1H       0.039100
     40 H38        -88.2870    17.0410     1.9950 h1         1 A1H       0.062700
     41 H50        -88.2880    19.6600     3.9660 h1         1 A1H       0.053200
     42 H49        -88.5340    17.9110     3.9880 h1         1 A1H       0.053200
     43 H51        -87.8760    16.6650     6.1510 ha         1 A1H       0.084000
     44 H52        -88.7100    18.8330     9.7480 ha         1 A1H       0.135000
     45 H53        -88.6190    20.8680     6.0030 ha         1 A1H       0.131000
     46 H39        -85.8150    17.0930     0.7270 h1         1 A1H       0.056700
     47 H54        -86.4690    15.5980     7.6490 ha         1 A1H       0.123500
     48 H55        -86.1800    13.5450     8.9280 ha         1 A1H       0.111000
     49 H56        -89.3840    14.7250    11.5260 ha         1 A1H       0.111000
     50 H57        -89.6890    16.7620    10.2250 ha         1 A1H       0.123500
     51 H40        -85.8010    14.1190     2.0610 h2         1 A1H       0.111700
     52 H44        -84.9970    18.7550     2.1940 h1         1 A1H       0.075700
     53 H43        -86.6980    19.0400     1.9060 h1         1 A1H       0.075700
     54 H48        -83.2530    10.7450     7.5820 hn         1 A1H       0.506000
     55 H47        -83.5560    12.4090     7.9330 hn         1 A1H       0.506000
     56 H58        -88.1500    12.7870    11.7520 ho         1 A1H       0.456000
     57 H41        -87.8380    16.1210    -0.0680 ho         1 A1H       0.499000
     58 H42        -88.2500    13.8990     3.8650 ho         1 A1H       0.516000
@<TRIPOS>BOND
     1     1     7 1   
     2     1    23 1   
     3     1    35 1   
     4     1    37 1   
     5     2     3 ar  
     6     2    26 ar  
     7     2    29 1   
     8     3     6 ar  
     9     3    25 1   
    10     4    25 2   
    11     4    29 1   
    12     4    38 1   
    13     5    26 ar  
    14     5    27 ar  
    15     5    39 1   
    16     6    27 ar  
    17     6    28 1   
    18     7    16 1   
    19     7    34 1   
    20     7    40 1   
    21     8     9 1   
    22     8    36 1   
    23     8    41 1   
    24     8    42 1   
    25     9    10 ar  
    26     9    14 ar  
    27    10    11 ar  
    28    10    43 1   
    29    11    12 ar  
    30    11    17 1   
    31    12    13 ar  
    32    12    44 1   
    33    13    14 ar  
    34    13    15 1   
    35    14    45 1   
    36    15    30 1   
    37    15    31 1   
    38    16    24 1   
    39    16    33 1   
    40    16    46 1   
    41    17    18 ar  
    42    17    22 ar  
    43    18    19 ar  
    44    18    47 1   
    45    19    20 ar  
    46    19    48 1   
    47    20    21 ar  
    48    20    32 1   
    49    21    22 ar  
    50    21    49 1   
    51    22    50 1   
    52    23    29 1   
    53    23    33 1   
    54    23    51 1   
    55    24    36 1   
    56    24    52 1   
    57    24    53 1   
    58    28    54 1   
    59    28    55 1   
    60    32    56 1   
    61    34    57 1   
    62    35    58 1   
@<TRIPOS>SUBSTRUCTURE
     1 A1H         1 TEMP              0 ****  ****    0 ROOT
