@<TRIPOS>MOLECULE
A1H
   27    28     1     0     0
SMALL
abcg2


@<TRIPOS>ATOM
      1 C2          64.5200    -6.4890    -0.7290 c5         1 A1H       0.068700
      2 C4          62.7750    -4.9590    -1.8410 c6         1 A1H      -0.077400
      3 C5          63.2200    -3.8250    -0.9190 c6         1 A1H      -0.057700
      4 C6          62.8280    -2.4690    -1.4820 c3         1 A1H       0.170600
      5 C7          64.7180    -3.9670    -0.6500 c6         1 A1H       0.153300
      6 C8          64.9580    -5.2790     0.0960 c6         1 A1H       0.112300
      7 N1          64.2560    -7.6460     0.1020 ns         1 A1H      -0.508900
      8 C1          62.9520    -7.6500     0.4800 c          1 A1H       0.676100
      9 C3          63.1380    -6.3440    -1.3620 c5         1 A1H       0.163300
     10 O2          63.5260    -2.2330    -2.6840 oh         1 A1H      -0.670000
     11 O3          65.1610    -2.8810     0.1350 oh         1 A1H      -0.662000
     12 O4          66.3120    -5.4890     0.4180 oh         1 A1H      -0.663000
     13 O5          62.2660    -6.8080    -0.3140 os         1 A1H      -0.426100
     14 H1          65.2690    -6.7020    -1.4940 h1         1 A1H       0.096700
     15 H2          63.2440    -4.8340    -2.8200 hc         1 A1H       0.070200
     16 H3          61.6970    -4.9100    -2.0160 hc         1 A1H       0.070200
     17 H4          62.6860    -3.9170     0.0360 hc         1 A1H       0.072700
     18 H5          63.0350    -1.6920    -0.7390 h1         1 A1H       0.030200
     19 H6          61.7410    -2.4690    -1.6440 h1         1 A1H       0.030200
     20 H7          65.2560    -3.9960    -1.6080 h1         1 A1H       0.058700
     21 H8          64.3460    -5.2430     1.0110 h1         1 A1H       0.051700
     22 H9          64.9540    -8.0100     0.7330 hn         1 A1H       0.339500
     23 H10         63.0470    -7.0490    -2.1940 h1         1 A1H       0.073700
     24 H11         63.2630    -1.3730    -3.0220 ho         1 A1H       0.447000
     25 H12         66.0940    -2.7320    -0.0390 ho         1 A1H       0.450000
     26 H13         66.5530    -4.8970     1.1370 ho         1 A1H       0.455000
     27 O1          62.4250    -8.2870     1.3580 o          1 A1H      -0.525000
@<TRIPOS>BOND
     1     1     6 1   
     2     1     7 1   
     3     1     9 1   
     4     1    14 1   
     5     2     3 1   
     6     2     9 1   
     7     2    15 1   
     8     2    16 1   
     9     3     4 1   
    10     3     5 1   
    11     3    17 1   
    12     4    10 1   
    13     4    18 1   
    14     4    19 1   
    15     5     6 1   
    16     5    11 1   
    17     5    20 1   
    18     6    12 1   
    19     6    21 1   
    20     7     8 1   
    21     7    22 1   
    22     8    13 1   
    23     8    27 2   
    24     9    13 1   
    25     9    23 1   
    26    10    24 1   
    27    11    25 1   
    28    12    26 1   
@<TRIPOS>SUBSTRUCTURE
     1 A1H         1 TEMP              0 ****  ****    0 ROOT
