@<TRIPOS>MOLECULE
A1H
   58    62     1     0     0
SMALL
No Charge or Current Charge


@<TRIPOS>ATOM
      1 C1         -87.4760    15.2390     3.3210 c5         1 A1H       0.132300
      2 C11        -84.3930    13.1750     4.0290 ca         1 A1H       0.125500
      3 C12        -83.8170    13.1470     5.2740 ca         1 A1H      -0.096600
      4 C14        -85.0420    14.9180     5.2600 cc         1 A1H       0.418700
      5 C16        -83.2980    11.2450     3.4760 ca         1 A1H       0.173900
      6 C18        -82.9430    12.0820     5.5760 ca         1 A1H       0.448900
      7 C2         -87.8430    15.9700     1.9880 c5         1 A1H       0.142300
      8 C20        -87.8790    18.7910     4.5020 c3         1 A1H       0.134900
      9 C21        -88.0150    18.8370     6.0170 ca         1 A1H      -0.132300
     10 C22        -88.2460    17.6530     6.7390 ca         1 A1H      -0.106000
     11 C23        -88.3700    17.6650     8.1480 cp         1 A1H      -0.073000
     12 C24        -88.2590    18.9100     8.8150 ca         1 A1H      -0.058000
     13 C25        -88.0270    20.1140     8.1100 ca         1 A1H      -0.138600
     14 C26        -87.9050    20.0600     6.7030 ca         1 A1H      -0.052000
     15 C27        -87.9060    21.4360     8.8480 c          1 A1H       0.715600
     16 C3         -86.4760    16.6870     1.6760 c5         1 A1H       0.136300
     17 C30        -88.6080    16.3970     8.9100 cp         1 A1H      -0.040000
     18 C31        -88.0040    15.1780     8.5080 ca         1 A1H      -0.068000
     19 C32        -88.2260    13.9880     9.2230 ca         1 A1H      -0.178500
     20 C33        -89.0560    13.9920    10.3510 ca         1 A1H       0.115100
     21 C34        -89.6660    15.1840    10.7700 ca         1 A1H      -0.178500
     22 C35        -89.4430    16.3750    10.0560 ca         1 A1H      -0.068000
     23 C5         -86.0540    14.7320     2.9300 c5         1 A1H       0.278300
     24 C9         -86.3210    18.1490     2.1930 c3         1 A1H       0.031600
     25 N13        -84.2090    14.2320     6.0650 nd         1 A1H      -0.560100
     26 N15        -84.1520    12.2280     3.1010 nb         1 A1H      -0.217000
     27 N17        -82.6750    11.1250     4.6750 nb         1 A1H      -0.310000
     28 N19        -82.3170    11.9640     6.7780 nv         1 A1H      -1.067900
     29 N8         -85.1770    14.2930     4.0140 na         1 A1H      -0.289300
     30 O28        -88.0070    21.4380    10.0670 o          1 A1H      -0.714500
     31 O29        -87.7140    22.4540     8.1980 o          1 A1H      -0.714500
     32 O36        -89.2670    12.8350    11.0390 oh         1 A1H      -0.547100
     33 O4         -85.4360    15.8470     2.2480 os         1 A1H      -0.441000
     34 O6         -88.1960    15.0500     0.9320 oh         1 A1H      -0.690000
     35 O7         -88.4110    14.2060     3.7020 oh         1 A1H      -0.678000
     36 S10        -86.1440    18.3540     4.0330 ss         1 A1H      -0.433000
     37 H37        -87.4010    15.9660     4.1370 h1         1 A1H       0.069700
     38 H1         -85.5580    15.8380     5.5120 h5         1 A1H       0.098800
     39 H46        -83.0900    10.4720     2.7380 h5         1 A1H       0.039100
     40 H38        -88.6510    16.6970     2.1470 h1         1 A1H       0.062700
     41 H50        -88.1350    19.7670     4.0680 h1         1 A1H       0.053200
     42 H49        -88.5710    18.0450     4.0920 h1         1 A1H       0.053200
     43 H51        -88.3420    16.7140     6.2000 ha         1 A1H       0.084000
     44 H52        -88.3380    18.9350     9.8990 ha         1 A1H       0.135000
     45 H53        -87.7200    20.9710     6.1370 ha         1 A1H       0.131000
     46 H39        -86.3220    16.7220     0.5890 h1         1 A1H       0.056700
     47 H54        -87.3450    15.1590     7.6430 ha         1 A1H       0.123500
     48 H55        -87.7500    13.0660     8.9000 ha         1 A1H       0.111000
     49 H56        -90.3140    15.1960    11.6430 ha         1 A1H       0.111000
     50 H57        -89.9350    17.2870    10.3870 ha         1 A1H       0.123500
     51 H40        -86.1480    13.8890     2.2330 h2         1 A1H       0.111700
     52 H44        -85.4160    18.5650     1.7310 h1         1 A1H       0.075700
     53 H43        -87.1670    18.7510     1.8380 h1         1 A1H       0.075700
     54 H48        -81.4940    11.3700     6.8290 hn         1 A1H       0.506000
     55 H47        -82.3290    12.7800     7.3850 hn         1 A1H       0.506000
     56 H58        -89.8680    13.0270    11.7910 ho         1 A1H       0.456000
     57 H41        -88.7000    15.5580     0.2550 ho         1 A1H       0.499000
     58 H42        -88.0030    13.6820     4.4290 ho         1 A1H       0.516000
@<TRIPOS>BOND
     1     1     7 1   
     2     1    23 1   
     3     1    35 1   
     4     1    37 1   
     5     2     3 ar  
     6     2    26 ar  
     7     2    29 1   
     8     3     6 ar  
     9     3    25 1   
    10     4    25 2   
    11     4    29 1   
    12     4    38 1   
    13     5    26 ar  
    14     5    27 ar  
    15     5    39 1   
    16     6    27 ar  
    17     6    28 1   
    18     7    16 1   
    19     7    34 1   
    20     7    40 1   
    21     8     9 1   
    22     8    36 1   
    23     8    41 1   
    24     8    42 1   
    25     9    10 ar  
    26     9    14 ar  
    27    10    11 ar  
    28    10    43 1   
    29    11    12 ar  
    30    11    17 1   
    31    12    13 ar  
    32    12    44 1   
    33    13    14 ar  
    34    13    15 1   
    35    14    45 1   
    36    15    30 1   
    37    15    31 1   
    38    16    24 1   
    39    16    33 1   
    40    16    46 1   
    41    17    18 ar  
    42    17    22 ar  
    43    18    19 ar  
    44    18    47 1   
    45    19    20 ar  
    46    19    48 1   
    47    20    21 ar  
    48    20    32 1   
    49    21    22 ar  
    50    21    49 1   
    51    22    50 1   
    52    23    29 1   
    53    23    33 1   
    54    23    51 1   
    55    24    36 1   
    56    24    52 1   
    57    24    53 1   
    58    28    54 1   
    59    28    55 1   
    60    32    56 1   
    61    34    57 1   
    62    35    58 1   
@<TRIPOS>SUBSTRUCTURE
     1 A1H         1 TEMP              0 ****  ****    0 ROOT
