@<TRIPOS>MOLECULE
A1H
   47    50     1     0     0
SMALL
abcg2


@<TRIPOS>ATOM
      1 C1          53.8720   -66.8730   -29.8070 c5         1 A1H       0.085300
      2 C11         50.8760   -64.9070   -29.3050 ca         1 A1H       0.133500
      3 C12         50.6390   -63.6710   -29.8850 ca         1 A1H      -0.100600
      4 C14         52.7370   -63.9080   -29.8770 cc         1 A1H       0.415700
      5 C16         48.7360   -65.2820   -29.0010 ca         1 A1H       0.178900
      6 C18         49.2910   -63.2830   -29.9960 ca         1 A1H       0.449900
      7 C2          54.9520   -67.4610   -28.9020 c5         1 A1H       0.155300
      8 C20         58.0700   -65.7990   -26.2540 c3         1 A1H       0.144900
      9 C21         59.4140   -66.3440   -25.8770 ca         1 A1H      -0.134300
     10 C22         59.5900   -67.7150   -25.7030 ca         1 A1H      -0.117000
     11 C23         60.8390   -68.2180   -25.3710 ca         1 A1H      -0.150000
     12 C24         61.9190   -67.3600   -25.2150 ca         1 A1H      -0.073000
     13 C25         61.7670   -65.9870   -25.3880 ca         1 A1H      -0.139600
     14 C26         60.5070   -65.4970   -25.7240 ca         1 A1H      -0.061000
     15 C27         62.9520   -65.0380   -25.2130 c          1 A1H       0.715600
     16 C3          55.1270   -66.3430   -27.8790 c5         1 A1H       0.168300
     17 C5          52.9840   -66.1600   -28.7780 c5         1 A1H       0.279300
     18 C9          56.1880   -65.3200   -28.2620 c3         1 A1H       0.018600
     19 N13         51.8180   -63.0620   -30.2330 nd         1 A1H      -0.559100
     20 N15         49.9600   -65.7550   -28.8450 nb         1 A1H      -0.214000
     21 N17         48.3580   -64.1250   -29.5370 nb         1 A1H      -0.308000
     22 N19         48.9140   -62.1210   -30.5320 nv         1 A1H      -1.069900
     23 N8          52.2350   -65.0510   -29.3110 na         1 A1H      -0.291300
     24 O28         62.7180   -63.8240   -25.3610 o          1 A1H      -0.718000
     25 O29         64.0460   -65.5660   -24.9390 o          1 A1H      -0.718000
     26 O4          53.8560   -65.6910   -27.7870 os         1 A1H      -0.454000
     27 O6          54.4960   -68.6070   -28.2310 oh         1 A1H      -0.707000
     28 O7          53.2180   -67.8660   -30.5330 oh         1 A1H      -0.706000
     29 S10         57.8720   -65.9580   -28.0620 ss         1 A1H      -0.432000
     30 H1          54.3380   -66.1290   -30.4670 h1         1 A1H       0.049700
     31 H4          53.7990   -63.7530   -29.9960 h5         1 A1H       0.071800
     32 H16         47.9300   -65.9170   -28.6480 h5         1 A1H       0.044100
     33 H2          55.8810   -67.6550   -29.4510 h1         1 A1H       0.081700
     34 H202        57.2730   -66.3510   -25.7550 h1         1 A1H       0.055200
     35 H201        57.9800   -64.7470   -25.9820 h1         1 A1H       0.055200
     36 H22         58.7460   -68.3850   -25.8220 ha         1 A1H       0.088000
     37 H23         60.9690   -69.2840   -25.2320 ha         1 A1H       0.088000
     38 H24         62.8910   -67.7580   -24.9540 ha         1 A1H       0.128000
     39 H26         60.3740   -64.4310   -25.8600 ha         1 A1H       0.129000
     40 H3          55.3640   -66.7660   -26.8980 h1         1 A1H       0.102700
     41 H5          52.2470   -66.8580   -28.3690 h2         1 A1H       0.115700
     42 H92         56.0800   -64.4200   -27.6520 h1         1 A1H       0.072700
     43 H91         56.0920   -65.0120   -29.3060 h1         1 A1H       0.072700
     44 HN19        47.9390   -61.8830   -30.5910 hn         1 A1H       0.505500
     45 H7          49.5900   -61.4670   -30.8860 hn         1 A1H       0.505500
     46 HO6         54.2370   -69.2640   -28.8860 ho         1 A1H       0.523000
     47 HO7         52.6840   -67.4570   -31.2210 ho         1 A1H       0.520000
@<TRIPOS>BOND
     1     1     7 1   
     2     1    17 1   
     3     1    28 1   
     4     1    30 1   
     5     2     3 ar  
     6     2    20 ar  
     7     2    23 1   
     8     3     6 ar  
     9     3    19 1   
    10     4    19 2   
    11     4    23 1   
    12     4    31 1   
    13     5    20 ar  
    14     5    21 ar  
    15     5    32 1   
    16     6    21 ar  
    17     6    22 1   
    18     7    16 1   
    19     7    27 1   
    20     7    33 1   
    21     8     9 1   
    22     8    29 1   
    23     8    34 1   
    24     8    35 1   
    25     9    10 ar  
    26     9    14 ar  
    27    10    11 ar  
    28    10    36 1   
    29    11    12 ar  
    30    11    37 1   
    31    12    13 ar  
    32    12    38 1   
    33    13    14 ar  
    34    13    15 1   
    35    14    39 1   
    36    15    24 1   
    37    15    25 1   
    38    16    18 1   
    39    16    26 1   
    40    16    40 1   
    41    17    23 1   
    42    17    26 1   
    43    17    41 1   
    44    18    29 1   
    45    18    42 1   
    46    18    43 1   
    47    22    44 1   
    48    22    45 1   
    49    27    46 1   
    50    28    47 1   
@<TRIPOS>SUBSTRUCTURE
     1 A1H         1 TEMP              0 ****  ****    0 ROOT
