@<TRIPOS>MOLECULE
A1H
   55    58     1     0     0
SMALL
abcg2


@<TRIPOS>ATOM
      1 C14         83.4790   -13.9300    30.6980 cc         1 A1H       0.423700
      2 O4          84.0340   -15.1010    27.9320 os         1 A1H      -0.442000
      3 C12         82.0150   -12.4110    30.6030 ca         1 A1H      -0.096600
      4 C11         82.6260   -12.4210    29.3600 ca         1 A1H       0.128500
      5 C9          85.1980   -17.1970    28.1910 c3         1 A1H       0.031600
      6 C1          85.9130   -13.9740    28.7440 c5         1 A1H       0.134300
      7 C2          86.3890   -14.9360    27.6640 c5         1 A1H       0.142300
      8 C5          84.4330   -13.8290    28.3630 c5         1 A1H       0.278300
      9 C3          85.1620   -15.8490    27.4860 c5         1 A1H       0.138300
     10 C16         81.3470   -10.8010    28.6140 ca         1 A1H       0.172900
     11 C18         80.9840   -11.4710    30.7840 ca         1 A1H       0.447900
     12 C20         87.0190   -17.3460    30.3770 c3         1 A1H       0.135900
     13 C21         87.1700   -17.3660    31.8680 ca         1 A1H      -0.136300
     14 C22         87.4300   -16.1860    32.5570 ca         1 A1H      -0.105000
     15 C23         87.5630   -16.1750    33.9460 ca         1 A1H      -0.098800
     16 C24         87.4060   -17.3800    34.6350 ca         1 A1H      -0.050000
     17 C25         87.1370   -18.5680    33.9690 ca         1 A1H      -0.143600
     18 C26         87.0180   -18.5480    32.5810 ca         1 A1H      -0.047000
     19 C27         86.9710   -19.8720    34.7490 c          1 A1H       0.715600
     20 C30         87.8690   -14.9070    34.6160 ce         1 A1H      -0.120200
     21 C31         88.1890   -14.7400    35.8990 c2         1 A1H      -0.245200
     22 C32         88.4600   -13.4100    36.5180 c3         1 A1H       0.200800
     23 N13         82.5620   -13.3640    31.4240 nd         1 A1H      -0.555100
     24 N15         82.3290   -11.6360    28.3270 nb         1 A1H      -0.215000
     25 N17         80.6740   -10.6750    29.7550 nb         1 A1H      -0.311000
     26 N19         80.3160   -11.3440    31.9320 nv         1 A1H      -1.069900
     27 N8          83.5780   -13.3990    29.4360 na         1 A1H      -0.289300
     28 O28         86.7400   -20.8930    34.0750 o          1 A1H      -0.714000
     29 O29         87.0810   -19.7960    35.9870 o          1 A1H      -0.714000
     30 O33         89.7490   -13.4330    37.0980 oh         1 A1H      -0.654000
     31 O6          86.6510   -14.1840    26.5060 oh         1 A1H      -0.691000
     32 H141        84.1090   -14.7470    31.0180 h5         1 A1H       0.095800
     33 H92         84.2970   -17.7510    27.9250 h1         1 A1H       0.076200
     34 H91         86.0430   -17.7840    27.8260 h1         1 A1H       0.076200
     35 H11         85.9840   -14.4970    29.7060 h1         1 A1H       0.073700
     36 H21         87.2720   -15.5060    27.9760 h1         1 A1H       0.061700
     37 H51         84.3250   -13.0800    27.5710 h2         1 A1H       0.110700
     38 H31         85.0410   -16.0690    26.4170 h1         1 A1H       0.056700
     39 H161        81.0450   -10.1270    27.8190 h5         1 A1H       0.039100
     40 H202        87.5850   -16.5200    29.9460 h1         1 A1H       0.051200
     41 H201        87.3700   -18.2760    29.9280 h1         1 A1H       0.051200
     42 H221        87.5430   -15.2600    32.0020 ha         1 A1H       0.081000
     43 H241        87.4880   -17.4050    35.7130 ha         1 A1H       0.136000
     44 H261        86.8090   -19.4700    32.0520 ha         1 A1H       0.134000
     45 H322        88.3650   -12.6210    35.7600 h1         1 A1H       0.013200
     46 H321        87.6930   -13.2110    37.2780 h1         1 A1H       0.013200
     47 H191        79.5610   -10.6850    32.0110 hn         1 A1H       0.505000
     48 H192        80.5030   -11.9510    32.7120 hn         1 A1H       0.505000
     49 H331        89.8380   -12.6560    37.6570 ho         1 A1H       0.428000
     50 H61         86.9010   -14.7900    25.8010 ho         1 A1H       0.499000
     51 H71         86.4450   -12.3230    29.5790 ho         1 A1H       0.512000
     52 H301        87.8380   -14.0280    33.9760 ha         1 A1H       0.148000
     53 H311        88.2530   -15.5930    36.5700 ha         1 A1H       0.194000
     54 O7          86.6210   -12.7750    28.7480 oh         1 A1H      -0.680000
     55 S10         85.2400   -17.1560    30.0060 ss         1 A1H      -0.432000
@<TRIPOS>BOND
     1     1    23 2   
     2     1    27 1   
     3     1    32 1   
     4     2     8 1   
     5     2     9 1   
     6     3     4 ar  
     7     3    11 ar  
     8     3    23 1   
     9     4    24 ar  
    10     4    27 1   
    11     5     9 1   
    12     5    33 1   
    13     5    34 1   
    14     5    55 1   
    15     6     7 1   
    16     6     8 1   
    17     6    35 1   
    18     6    54 1   
    19     7     9 1   
    20     7    31 1   
    21     7    36 1   
    22     8    27 1   
    23     8    37 1   
    24     9    38 1   
    25    10    24 ar  
    26    10    25 ar  
    27    10    39 1   
    28    11    25 ar  
    29    11    26 1   
    30    12    13 1   
    31    12    40 1   
    32    12    41 1   
    33    12    55 1   
    34    13    14 ar  
    35    13    18 ar  
    36    14    15 ar  
    37    14    42 1   
    38    15    16 ar  
    39    15    20 1   
    40    16    17 ar  
    41    16    43 1   
    42    17    18 ar  
    43    17    19 1   
    44    18    44 1   
    45    19    28 1   
    46    19    29 1   
    47    20    21 2   
    48    20    52 1   
    49    21    22 1   
    50    21    53 1   
    51    22    30 1   
    52    22    45 1   
    53    22    46 1   
    54    26    47 1   
    55    26    48 1   
    56    30    49 1   
    57    31    50 1   
    58    51    54 1   
@<TRIPOS>SUBSTRUCTURE
     1 A1H         1 TEMP              0 ****  ****    0 ROOT
