@<TRIPOS>MOLECULE
A1H
   57    61     1     0     0
SMALL
abcg2


@<TRIPOS>ATOM
      1 C1          85.4970   -14.1690    29.8210 c5         1 A1H       0.132300
      2 C11         82.4050   -12.6950    28.5460 ca         1 A1H       0.130500
      3 C12         81.4190   -12.1590    29.3580 ca         1 A1H      -0.098600
      4 C14         82.5350   -13.4580    30.5940 cc         1 A1H       0.421700
      5 C16         81.6990   -11.5820    26.7910 ca         1 A1H       0.172900
      6 C18         80.5320   -11.2540    28.7470 ca         1 A1H       0.445900
      7 C2          86.2180   -15.4750    29.5280 c5         1 A1H       0.149300
      8 C20         85.8250   -16.2130    33.0540 c3         1 A1H       0.136900
      9 C21         86.5940   -17.4710    33.3070 ca         1 A1H      -0.128300
     10 C22         86.1530   -18.4010    34.2450 ca         1 A1H      -0.120000
     11 C23         86.8630   -19.5700    34.4480 ca         1 A1H      -0.121000
     12 C24         88.0350   -19.8460    33.7390 cp         1 A1H      -0.020000
     13 C25         88.4930   -18.9140    32.8010 ca         1 A1H      -0.103600
     14 C26         87.7490   -17.7530    32.5900 ca         1 A1H      -0.095000
     15 C27         89.8000   -19.0720    32.0310 c          1 A1H       0.711600
     16 C3          85.0460   -16.4690    29.4260 c5         1 A1H       0.135300
     17 C30         88.7140   -21.1400    33.9690 cp         1 A1H       0.010000
     18 C31         89.0370   -21.9770    32.9010 ca         1 A1H      -0.084500
     19 C32         89.6300   -23.2110    33.1200 ca         1 A1H      -0.121000
     20 C33         89.9110   -23.6330    34.4140 ca         1 A1H      -0.126000
     21 C34         89.5880   -22.8120    35.4860 ca         1 A1H      -0.121000
     22 C35         88.9900   -21.5780    35.2640 ca         1 A1H      -0.084500
     23 C5          84.2370   -14.3470    28.9640 c5         1 A1H       0.274300
     24 C9          84.7670   -17.3360    30.6420 c3         1 A1H       0.053600
     25 N13         81.5170   -12.6510    30.6350 nd         1 A1H      -0.570100
     26 N15         82.5910   -12.4400    27.2530 nb         1 A1H      -0.207000
     27 N17         80.7050   -10.9880    27.4470 nb         1 A1H      -0.310000
     28 N19         79.5400   -10.6560    29.4090 nv         1 A1H      -1.072900
     29 N8          83.1260   -13.5260    29.3590 na         1 A1H      -0.283300
     30 O28         90.8110   -19.3250    32.7080 o          1 A1H      -0.707500
     31 O29         89.7280   -18.8970    30.7990 o          1 A1H      -0.707500
     32 O4          83.8890   -15.6970    29.1070 os         1 A1H      -0.452000
     33 O6          86.8880   -15.3260    28.3020 oh         1 A1H      -0.699000
     34 O7          86.2570   -13.0480    29.5020 oh         1 A1H      -0.672000
     35 S10         84.2540   -16.4940    32.1630 ss         1 A1H      -0.490000
     36 H36         85.2050   -14.1790    30.8790 h1         1 A1H       0.057700
     37 H44         82.9000   -14.0430    31.4260 h5         1 A1H       0.088800
     38 H45         81.7830   -11.3250    25.7410 h5         1 A1H       0.041100
     39 H37         86.9160   -15.7550    30.3250 h1         1 A1H       0.080700
     40 H48         86.4320   -15.4750    32.5310 h1         1 A1H       0.063200
     41 H49         85.5040   -15.7530    33.9910 h1         1 A1H       0.063200
     42 H50         85.2450   -18.2170    34.8070 ha         1 A1H       0.098000
     43 H51         86.4920   -20.2970    35.1610 ha         1 A1H       0.097000
     44 H52         88.1000   -17.0350    31.8570 ha         1 A1H       0.113000
     45 H38         85.2470   -17.1640    28.6010 h1         1 A1H       0.070700
     46 H53         88.8120   -21.6640    31.8890 ha         1 A1H       0.117500
     47 H54         89.8690   -23.8490    32.2780 ha         1 A1H       0.096500
     48 H55         90.3760   -24.5960    34.5850 ha         1 A1H       0.092000
     49 H56         89.8030   -23.1300    36.4980 ha         1 A1H       0.096500
     50 H57         88.7490   -20.9420    36.1070 ha         1 A1H       0.117500
     51 H39         84.4520   -14.0870    27.9220 h2         1 A1H       0.113700
     52 H43         83.9450   -18.0130    30.4030 h1         1 A1H       0.094200
     53 H42         85.6320   -17.9700    30.8510 h1         1 A1H       0.094200
     54 H47         78.9060   -10.0430    28.9280 hn         1 A1H       0.503000
     55 H46         79.3640   -10.8630    30.3770 hn         1 A1H       0.503000
     56 H40         87.3170   -16.1600    28.0850 ho         1 A1H       0.517000
     57 H41         85.8460   -12.2770    29.9050 ho         1 A1H       0.504000
@<TRIPOS>BOND
     1     1     7 1   
     2     1    23 1   
     3     1    34 1   
     4     1    36 1   
     5     2     3 ar  
     6     2    26 ar  
     7     2    29 1   
     8     3     6 ar  
     9     3    25 1   
    10     4    25 2   
    11     4    29 1   
    12     4    37 1   
    13     5    26 ar  
    14     5    27 ar  
    15     5    38 1   
    16     6    27 ar  
    17     6    28 1   
    18     7    16 1   
    19     7    33 1   
    20     7    39 1   
    21     8     9 1   
    22     8    35 1   
    23     8    40 1   
    24     8    41 1   
    25     9    10 ar  
    26     9    14 ar  
    27    10    11 ar  
    28    10    42 1   
    29    11    12 ar  
    30    11    43 1   
    31    12    13 ar  
    32    12    17 1   
    33    13    14 ar  
    34    13    15 1   
    35    14    44 1   
    36    15    30 1   
    37    15    31 1   
    38    16    24 1   
    39    16    32 1   
    40    16    45 1   
    41    17    18 ar  
    42    17    22 ar  
    43    18    19 ar  
    44    18    46 1   
    45    19    20 ar  
    46    19    47 1   
    47    20    21 ar  
    48    20    48 1   
    49    21    22 ar  
    50    21    49 1   
    51    22    50 1   
    52    23    29 1   
    53    23    32 1   
    54    23    51 1   
    55    24    35 1   
    56    24    52 1   
    57    24    53 1   
    58    28    54 1   
    59    28    55 1   
    60    33    56 1   
    61    34    57 1   
@<TRIPOS>SUBSTRUCTURE
     1 A1H         1 TEMP              0 ****  ****    0 ROOT
