@<TRIPOS>MOLECULE
A1H
   47    50     1     0     0
SMALL
abcg2


@<TRIPOS>ATOM
      1 C1         -54.8420    67.2520   -28.9410 c5         1 A1H       0.134300
      2 C11        -51.9850    65.0250   -29.2720 ca         1 A1H       0.126500
      3 C12        -51.7390    64.2460   -30.3910 ca         1 A1H      -0.095600
      4 C14        -53.8050    64.6810   -30.4390 cc         1 A1H       0.424700
      5 C16        -49.8840    64.9490   -28.6410 ca         1 A1H       0.172900
      6 C18        -50.4100    63.8210   -30.5750 ca         1 A1H       0.445900
      7 C2         -55.8650    67.4800   -27.8370 c5         1 A1H       0.142300
      8 C20        -58.2450    66.5540   -30.4070 c3         1 A1H       0.131900
      9 C21        -58.2830    66.3750   -31.8940 ca         1 A1H      -0.125300
     10 C22        -57.1580    66.6500   -32.6660 ca         1 A1H      -0.120000
     11 C23        -57.1910    66.4590   -34.0360 ca         1 A1H      -0.135000
     12 C24        -58.3410    65.9610   -34.6370 ca         1 A1H       0.158000
     13 C25        -59.4850    65.6710   -33.9000 ca         1 A1H      -0.113600
     14 C26        -59.4250    65.9040   -32.5250 ca         1 A1H      -0.060000
     15 C28        -60.7860    65.1080   -34.4780 c          1 A1H       0.721600
     16 C3         -56.1660    66.0390   -27.3860 c5         1 A1H       0.137300
     17 C5         -54.0610    66.0720   -28.3520 c5         1 A1H       0.277300
     18 C9         -57.4350    65.3980   -27.9260 c3         1 A1H       0.030600
     19 N13        -52.8920    64.0410   -31.1050 nd         1 A1H      -0.556100
     20 N15        -51.0920    65.4080   -28.3630 nb         1 A1H      -0.216000
     21 N17        -49.5010    64.1960   -29.6680 nb         1 A1H      -0.310000
     22 N19        -50.0270    63.0760   -31.6140 nv         1 A1H      -1.066900
     23 N8         -53.3220    65.3050   -29.3170 na         1 A1H      -0.290300
     24 O29        -60.6770    64.2150   -35.3320 o          1 A1H      -0.700500
     25 O30        -61.8280    65.5890   -33.9980 o          1 A1H      -0.700500
     26 O4         -55.0300    65.2580   -27.7500 os         1 A1H      -0.441000
     27 O6         -55.2370    68.2200   -26.8210 oh         1 A1H      -0.691000
     28 O7         -54.0710    68.3800   -29.2050 oh         1 A1H      -0.680000
     29 S10        -57.4810    65.0520   -29.7060 ss         1 A1H      -0.427000
     30 CL1        -58.3060    65.7890   -36.3670 cl         1 A1H      -0.213000
     31 H1         -55.3790    66.9040   -29.8330 h1         1 A1H       0.070700
     32 H2         -54.8520    64.7310   -30.7020 h5         1 A1H       0.097800
     33 H3         -49.0990    65.2170   -27.9420 h5         1 A1H       0.039100
     34 H4         -56.7690    67.9870   -28.1950 h1         1 A1H       0.062700
     35 H5         -57.6580    67.4340   -30.1420 h1         1 A1H       0.053200
     36 H6         -59.2470    66.6730   -29.9950 h1         1 A1H       0.053200
     37 H7         -56.2550    67.0260   -32.2000 ha         1 A1H       0.085000
     38 H8         -56.3240    66.6970   -34.6380 ha         1 A1H       0.107000
     39 H9         -60.3100    65.7050   -31.9320 ha         1 A1H       0.130000
     40 H10        -56.2670    66.0320   -26.2930 h1         1 A1H       0.056700
     41 H11        -53.3240    66.4370   -27.6280 h2         1 A1H       0.111700
     42 H12        -58.3020    66.0020   -27.6510 h1         1 A1H       0.076700
     43 H13        -57.5690    64.4280   -27.4430 h1         1 A1H       0.076700
     44 H14        -49.0830    62.7340   -31.6680 hn         1 A1H       0.504000
     45 H15        -50.7000    62.7170   -32.2680 hn         1 A1H       0.504000
     46 H17        -55.8680    68.3510   -26.1060 ho         1 A1H       0.499000
     47 H18        -53.6010    68.2410   -30.0330 ho         1 A1H       0.514000
@<TRIPOS>BOND
     1     1     7 1   
     2     1    17 1   
     3     1    28 1   
     4     1    31 1   
     5     2     3 ar  
     6     2    20 ar  
     7     2    23 1   
     8     3     6 ar  
     9     3    19 1   
    10     4    19 2   
    11     4    23 1   
    12     4    32 1   
    13     5    20 ar  
    14     5    21 ar  
    15     5    33 1   
    16     6    21 ar  
    17     6    22 1   
    18     7    16 1   
    19     7    27 1   
    20     7    34 1   
    21     8     9 1   
    22     8    29 1   
    23     8    35 1   
    24     8    36 1   
    25     9    10 ar  
    26     9    14 ar  
    27    10    11 ar  
    28    10    37 1   
    29    11    12 ar  
    30    11    38 1   
    31    12    13 ar  
    32    12    30 1   
    33    13    14 ar  
    34    13    15 1   
    35    14    39 1   
    36    15    24 1   
    37    15    25 1   
    38    16    18 1   
    39    16    26 1   
    40    16    40 1   
    41    17    23 1   
    42    17    26 1   
    43    17    41 1   
    44    18    29 1   
    45    18    42 1   
    46    18    43 1   
    47    22    44 1   
    48    22    45 1   
    49    27    46 1   
    50    28    47 1   
@<TRIPOS>SUBSTRUCTURE
     1 A1H         1 TEMP              0 ****  ****    0 ROOT
