@<TRIPOS>MOLECULE
A1H
   47    50     1     0     0
SMALL
No Charge or Current Charge


@<TRIPOS>ATOM
      1 C1         -15.3980     0.7210     3.4490 ca         1 A1H       0.401900
      2 C2         -14.8580     1.6890     4.3260 ca         1 A1H      -0.110000
      3 C3         -13.8150     2.5020     3.8440 ca         1 A1H      -0.040000
      4 C13        -12.1970     1.0330     0.1060 ca         1 A1H       0.034100
      5 C14        -11.7900     1.4510    -1.1700 ca         1 A1H      -0.079000
      6 C15        -10.4280     1.3480    -1.5040 ca         1 A1H      -0.154000
      7 C16         -9.5160     0.8290    -0.5600 ca         1 A1H       0.349300
      8 C18        -11.2220     0.5070     0.9890 ca         1 A1H       0.338900
      9 C19         -8.0210     0.7070    -0.9050 c3         1 A1H       0.125500
     10 C21         -7.5850     3.1560    -1.1280 c6         1 A1H       0.172300
     11 C22         -6.6160     4.3320    -0.8220 c6         1 A1H      -0.091900
     12 C23         -5.6190     3.9760     0.3020 c6         1 A1H       0.176300
     13 C24         -4.8200     2.7050    -0.0820 c6         1 A1H      -0.091900
     14 C25         -5.7130     1.6040    -0.7190 c6         1 A1H       0.172300
     15 C4         -13.3680     2.3050     2.5290 ca         1 A1H      -0.226000
     16 C5         -13.9620     1.3080     1.7360 ca         1 A1H       0.588300
     17 N6         -14.9660     0.5310     2.1800 nb         1 A1H      -0.687000
     18 O7         -13.5330     1.1170     0.4440 os         1 A1H      -0.345400
     19 C8         -16.4880     1.6650     7.6150 cc         1 A1H       0.239900
     20 C9         -16.3690     1.1500     6.3190 cc         1 A1H      -0.214000
     21 C10        -15.3740     1.8450     5.7000 cd         1 A1H      -0.092000
     22 N11        -14.9390     2.7590     6.6750 na         1 A1H       0.000800
     23 N12        -15.6430     2.6410     7.8760 nd         1 A1H      -0.514800
     24 N17         -9.9090     0.4060     0.6690 nb         1 A1H      -0.634000
     25 N20         -7.1610     1.8640    -0.5080 n3         1 A1H      -0.713600
     26 H1         -16.2090     0.0690     3.7690 h4         1 A1H       0.034100
     27 H2         -13.3590     3.2710     4.4640 ha         1 A1H       0.117000
     28 H3         -12.5110     1.8480    -1.8810 ha         1 A1H       0.137000
     29 H4         -10.0780     1.6670    -2.4810 ha         1 A1H       0.127000
     30 H5         -11.4990     0.1500     1.9810 h4         1 A1H       0.037100
     31 H6          -7.6450    -0.2050    -0.4220 h1         1 A1H       0.045700
     32 H7          -7.9330     0.5390    -1.9860 h1         1 A1H       0.045700
     33 H8          -7.6720     3.0480    -2.2190 h1         1 A1H       0.031950
     34 H9          -8.5830     3.4280    -0.7560 h1         1 A1H       0.031950
     35 H10         -6.0610     4.5850    -1.7360 hc         1 A1H       0.051700
     36 H11         -7.1960     5.2250    -0.5540 hc         1 A1H       0.051700
     37 H12         -6.1950     3.7600     1.2160 h1         1 A1H       0.047700
     38 H13         -4.3310     2.3050     0.8160 hc         1 A1H       0.051700
     39 H14         -4.0150     2.9580    -0.7840 hc         1 A1H       0.051700
     40 H15         -5.4270     0.6300    -0.2940 h1         1 A1H       0.031950
     41 H16         -5.5010     1.5540    -1.7980 h1         1 A1H       0.031950
     42 H17        -12.5740     2.9240     2.1220 ha         1 A1H       0.137000
     43 H18        -17.1800     1.3490     8.3860 h4         1 A1H       0.039100
     44 H19        -16.9750     0.3450     5.9170 ha         1 A1H       0.147000
     45 H20        -14.1970     3.4480     6.5640 hn         1 A1H       0.369000
     46 O26         -4.7220     5.0680     0.5410 oh         1 A1H      -0.662000
     47 H22         -5.2710     5.8180     0.8590 ho         1 A1H       0.440000
@<TRIPOS>BOND
     1     1     2 ar  
     2     1    17 ar  
     3     1    26 1   
     4     2     3 ar  
     5     2    21 1   
     6     3    15 ar  
     7     3    27 1   
     8     4     5 ar  
     9     4     8 ar  
    10     4    18 1   
    11     5     6 ar  
    12     5    28 1   
    13     6     7 ar  
    14     6    29 1   
    15     7     9 1   
    16     7    24 ar  
    17     8    24 ar  
    18     8    30 1   
    19     9    25 1   
    20     9    31 1   
    21     9    32 1   
    22    10    11 1   
    23    10    25 1   
    24    10    33 1   
    25    10    34 1   
    26    11    12 1   
    27    11    35 1   
    28    11    36 1   
    29    12    13 1   
    30    12    37 1   
    31    12    46 1   
    32    13    14 1   
    33    13    38 1   
    34    13    39 1   
    35    14    25 1   
    36    14    40 1   
    37    14    41 1   
    38    15    16 ar  
    39    15    42 1   
    40    16    17 ar  
    41    16    18 1   
    42    19    20 1   
    43    19    23 2   
    44    19    43 1   
    45    20    21 2   
    46    20    44 1   
    47    21    22 1   
    48    22    23 1   
    49    22    45 1   
    50    46    47 1   
@<TRIPOS>SUBSTRUCTURE
     1 A1H         1 TEMP              0 ****  ****    0 ROOT
