@<TRIPOS>MOLECULE
A1H
   62    67     1     0     0
SMALL
abcg2


@<TRIPOS>ATOM
      1 C1          34.8430     9.6850     0.6630 c          1 A1H       0.712600
      2 C2          34.6390     8.1790     0.5290 ca         1 A1H      -0.126600
      3 C3          35.2700     7.4600    -0.4870 ca         1 A1H      -0.094500
      4 C11         32.4150     3.9460    -1.6670 c5         1 A1H       0.169500
      5 C13         33.8190     2.0940    -1.5170 c5         1 A1H       0.172800
      6 C14         32.5470     1.8670    -2.3360 c5         1 A1H       0.143500
      7 C16         31.2920     3.2110    -0.9120 c5         1 A1H       0.114800
      8 C17         32.3700     3.2300    -3.0130 c5         1 A1H      -0.119400
      9 C18         30.2150     1.2520    -1.9040 c3         1 A1H       0.217100
     10 C19         29.2440     0.8700    -0.8140 ca         1 A1H      -0.074300
     11 C20         27.8720     0.9680    -1.0250 ca         1 A1H      -0.089000
     12 C21         26.9630     0.5360    -0.0690 ca         1 A1H      -0.122000
     13 C22         27.4370     0.0070     1.1220 ca         1 A1H       0.085100
     14 C23         28.7980    -0.0740     1.3670 ca         1 A1H      -0.122000
     15 C24         29.6930     0.3530     0.3980 ca         1 A1H      -0.089000
     16 C26         25.8070     0.3350     2.8060 ca         1 A1H       0.162100
     17 C27         24.7700    -0.2560     3.5240 ca         1 A1H      -0.173000
     18 C28         23.9640     0.5170     4.3380 ca         1 A1H      -0.038500
     19 C29         24.1750     1.8930     4.4470 ca         1 A1H      -0.179500
     20 C30         25.2160     2.4700     3.7230 ca         1 A1H      -0.038500
     21 C4          35.0940     6.0920    -0.6110 ca         1 A1H      -0.129500
     22 C5          34.2790     5.3920     0.2780 ca         1 A1H      -0.132300
     23 C6          33.6420     6.1070     1.2860 ca         1 A1H      -0.129500
     24 C7          33.8220     7.4800     1.4100 ca         1 A1H      -0.094500
     25 O8          34.2610    10.2440     1.6130 o          1 A1H      -0.721000
     26 O9          35.5760    10.2250    -0.1890 o          1 A1H      -0.721000
     27 C10         34.1120     3.9010     0.1440 c3         1 A1H       0.240100
     28 N12         33.7340     3.5270    -1.1970 n3         1 A1H      -0.733600
     29 N15         31.4360     1.8150    -1.3770 n3         1 A1H      -0.728600
     30 O25         26.5620    -0.5000     2.0530 os         1 A1H      -0.255200
     31 C31         26.0310     1.7050     2.9050 ca         1 A1H      -0.173000
     32 O32         22.3290     2.1630     5.9660 os         1 A1H      -0.261000
     33 C33         23.3400     2.7300     5.2920 cc         1 A1H       0.514500
     34 N34         23.4330     4.0040     5.4920 nd         1 A1H      -0.679000
     35 C35         22.4090     4.3030     6.3600 cd         1 A1H       0.234900
     36 C36         21.7340     3.1730     6.6480 cc         1 A1H       0.078900
     37 H1          35.9080     7.9810    -1.1880 ha         1 A1H       0.126000
     38 H2          32.3080     5.0300    -1.6750 h1         1 A1H       0.108700
     39 H3          33.8060     1.4570    -0.6250 h1         1 A1H       0.043700
     40 H4          34.7290     1.8650    -2.0810 h1         1 A1H       0.043700
     41 H5          32.5740     0.9790    -2.9670 h1         1 A1H       0.065700
     42 H6          30.3140     3.6280    -1.1800 h1         1 A1H       0.053200
     43 H7          31.3870     3.2900     0.1740 h1         1 A1H       0.053200
     44 H8          33.1850     3.5190    -3.6770 hc         1 A1H       0.059200
     45 H9          31.4200     3.3320    -3.5400 hc         1 A1H       0.059200
     46 H10         30.4750     0.3470    -2.4620 h1         1 A1H       0.036200
     47 H11         29.7030     1.9160    -2.6200 h1         1 A1H       0.036200
     48 H12         27.5010     1.3810    -1.9560 ha         1 A1H       0.126000
     49 H13         25.8980     0.6060    -0.2520 ha         1 A1H       0.125500
     50 H14         29.1560    -0.4830     2.3050 ha         1 A1H       0.125500
     51 H15         30.7570     0.2870     0.5850 ha         1 A1H       0.126000
     52 H16         24.6000    -1.3210     3.4430 ha         1 A1H       0.133500
     53 H17         23.1650     0.0340     4.8830 ha         1 A1H       0.131500
     54 H18         25.3980     3.5340     3.7970 ha         1 A1H       0.131500
     55 H19         35.5920     5.5560    -1.4110 ha         1 A1H       0.088500
     56 H20         32.9930     5.5860     1.9810 ha         1 A1H       0.088500
     57 H21         33.3150     8.0150     2.2030 ha         1 A1H       0.126000
     58 H23         33.4100     3.5390     0.9130 h1         1 A1H       0.024700
     59 H24         35.0680     3.4160     0.3620 h1         1 A1H       0.024700
     60 H27         26.8330     2.1830     2.3600 ha         1 A1H       0.133500
     61 H28         22.2280     5.3050     6.7160 h4         1 A1H       0.047100
     62 H29         20.8850     2.9310     7.2640 h4         1 A1H       0.061100
@<TRIPOS>BOND
     1     1     2 1   
     2     1    25 1   
     3     1    26 1   
     4     2     3 ar  
     5     2    24 ar  
     6     3    21 ar  
     7     3    37 1   
     8     4     7 1   
     9     4     8 1   
    10     4    28 1   
    11     4    38 1   
    12     5     6 1   
    13     5    28 1   
    14     5    39 1   
    15     5    40 1   
    16     6     8 1   
    17     6    29 1   
    18     6    41 1   
    19     7    29 1   
    20     7    42 1   
    21     7    43 1   
    22     8    44 1   
    23     8    45 1   
    24     9    10 1   
    25     9    29 1   
    26     9    46 1   
    27     9    47 1   
    28    10    11 ar  
    29    10    15 ar  
    30    11    12 ar  
    31    11    48 1   
    32    12    13 ar  
    33    12    49 1   
    34    13    14 ar  
    35    13    30 1   
    36    14    15 ar  
    37    14    50 1   
    38    15    51 1   
    39    16    17 ar  
    40    16    30 1   
    41    16    31 ar  
    42    17    18 ar  
    43    17    52 1   
    44    18    19 ar  
    45    18    53 1   
    46    19    20 ar  
    47    19    33 1   
    48    20    31 ar  
    49    20    54 1   
    50    21    22 ar  
    51    21    55 1   
    52    22    23 ar  
    53    22    27 1   
    54    23    24 ar  
    55    23    56 1   
    56    24    57 1   
    57    27    28 1   
    58    27    58 1   
    59    27    59 1   
    60    31    60 1   
    61    32    33 1   
    62    32    36 1   
    63    33    34 2   
    64    34    35 1   
    65    35    36 2   
    66    35    61 1   
    67    36    62 1   
@<TRIPOS>SUBSTRUCTURE
     1 A1H         1 TEMP              0 ****  ****    0 ROOT
