@<TRIPOS>MOLECULE
A1H
   47    50     1     0     0
SMALL
No Charge or Current Charge


@<TRIPOS>ATOM
      1 C1         -54.9660    67.3070   -29.0880 c5         1 A1H       0.134300
      2 C11        -52.0300    64.9210   -29.3160 ca         1 A1H       0.126500
      3 C12        -51.7740    64.2030   -30.4570 ca         1 A1H      -0.095600
      4 C14        -53.8190    64.8530   -30.6470 cc         1 A1H       0.424700
      5 C16        -49.8990    64.5230   -28.5860 ca         1 A1H       0.172900
      6 C18        -50.4910    63.6400   -30.6130 ca         1 A1H       0.445900
      7 C2         -55.8180    67.6210   -27.8130 c5         1 A1H       0.142300
      8 C20        -58.4340    66.4200   -30.2440 c3         1 A1H       0.131900
      9 C21        -58.3900    66.3850   -31.7640 ca         1 A1H      -0.125300
     10 C22        -57.4750    67.1910   -32.4660 ca         1 A1H      -0.120000
     11 C23        -57.4370    67.1530   -33.8690 ca         1 A1H      -0.135000
     12 C24        -58.3050    66.3080   -34.5820 ca         1 A1H       0.158000
     13 C25        -59.2200    65.4890   -33.8880 ca         1 A1H      -0.113600
     14 C26        -59.2590    65.5380   -32.4780 ca         1 A1H      -0.060000
     15 C28        -60.1560    64.5730   -34.6210 c          1 A1H       0.721600
     16 C3         -56.0840    66.1610   -27.2870 c5         1 A1H       0.137300
     17 C5         -54.0540    66.1910   -28.4910 c5         1 A1H       0.277300
     18 C9         -57.4050    65.4770   -27.7530 c3         1 A1H       0.030600
     19 N13        -52.8830    64.1450   -31.3090 nd         1 A1H      -0.556100
     20 N15        -51.1030    65.1010   -28.3550 nb         1 A1H      -0.216000
     21 N17        -49.5450    63.7950   -29.6740 nb         1 A1H      -0.310000
     22 N19        -50.1360    62.9080   -31.7030 nv         1 A1H      -1.066900
     23 N8         -53.3250    65.3410   -29.4310 na         1 A1H      -0.290300
     24 O29        -59.6780    63.6720   -35.2960 o          1 A1H      -0.700500
     25 O30        -61.3560    64.7180   -34.4370 o          1 A1H      -0.700500
     26 O4         -54.9420    65.3640   -27.7070 os         1 A1H      -0.441000
     27 O6         -55.0900    68.3970   -26.8380 oh         1 A1H      -0.691000
     28 O7         -54.2630    68.4510   -29.6210 oh         1 A1H      -0.680000
     29 S10        -57.4860    64.9940   -29.5470 ss         1 A1H      -0.427000
     30 Cl1        -58.2380    66.3340   -36.3450 cl         1 A1H      -0.213000
     31 H1         -55.6060    66.8890   -29.8730 h1         1 A1H       0.070700
     32 H2         -54.8340    65.0370   -30.9820 h5         1 A1H       0.097800
     33 H3         -49.1390    64.6570   -27.8190 h5         1 A1H       0.039100
     34 H4         -56.7560    68.1280   -28.0820 h1         1 A1H       0.062700
     35 H5         -58.0030    67.3620   -29.8820 h1         1 A1H       0.053200
     36 H6         -59.4740    66.3670   -29.8960 h1         1 A1H       0.053200
     37 H7         -56.7980    67.8500   -31.9270 ha         1 A1H       0.085000
     38 H8         -56.7350    67.7840   -34.4080 ha         1 A1H       0.107000
     39 H9         -59.9640    64.9090   -31.9380 ha         1 A1H       0.130000
     40 H10        -56.1060    66.1670   -26.1890 h1         1 A1H       0.056700
     41 H11        -53.3070    66.6490   -27.8290 h2         1 A1H       0.111700
     42 H12        -58.2550    66.1280   -27.5110 h1         1 A1H       0.076700
     43 H13        -57.5250    64.5600   -27.1620 h1         1 A1H       0.076700
     44 H14        -49.3280    62.2970   -31.6240 hn         1 A1H       0.504000
     45 H15        -50.8880    62.5950   -32.3130 hn         1 A1H       0.504000
     46 H17        -55.7520    68.8080   -26.2350 ho         1 A1H       0.499000
     47 H18        -53.6480    68.1280   -30.3200 ho         1 A1H       0.514000
@<TRIPOS>BOND
     1     1     7 1   
     2     1    17 1   
     3     1    28 1   
     4     1    31 1   
     5     2     3 ar  
     6     2    20 ar  
     7     2    23 1   
     8     3     6 ar  
     9     3    19 1   
    10     4    19 2   
    11     4    23 1   
    12     4    32 1   
    13     5    20 ar  
    14     5    21 ar  
    15     5    33 1   
    16     6    21 ar  
    17     6    22 1   
    18     7    16 1   
    19     7    27 1   
    20     7    34 1   
    21     8     9 1   
    22     8    29 1   
    23     8    35 1   
    24     8    36 1   
    25     9    10 ar  
    26     9    14 ar  
    27    10    11 ar  
    28    10    37 1   
    29    11    12 ar  
    30    11    38 1   
    31    12    13 ar  
    32    12    30 1   
    33    13    14 ar  
    34    13    15 1   
    35    14    39 1   
    36    15    24 1   
    37    15    25 1   
    38    16    18 1   
    39    16    26 1   
    40    16    40 1   
    41    17    23 1   
    42    17    26 1   
    43    17    41 1   
    44    18    29 1   
    45    18    42 1   
    46    18    43 1   
    47    22    44 1   
    48    22    45 1   
    49    27    46 1   
    50    28    47 1   
@<TRIPOS>SUBSTRUCTURE
     1 A1H         1 TEMP              0 ****  ****    0 ROOT
