@<TRIPOS>MOLECULE
A1H
   30    32     1     0     0
SMALL
No Charge or Current Charge


@<TRIPOS>ATOM
      1 C1         -23.1170     2.5600    -5.0600 cc         1 A1H      -0.154000
      2 C2         -23.7960     1.8080    -3.9960 ca         1 A1H      -0.023000
      3 C3         -23.9240     0.4010    -4.0520 ca         1 A1H      -0.080000
      4 C11        -22.2250     4.1440    -6.3260 cc         1 A1H       0.393400
      5 C13        -26.8610     0.1360    -0.2710 ca         1 A1H       0.113100
      6 C14        -27.8820     0.8220    -0.9580 ca         1 A1H      -0.137000
      7 C15        -29.0220     1.2640    -0.2640 ca         1 A1H      -0.090500
      8 C16        -29.1460     1.0150     1.1140 ca         1 A1H      -0.125000
      9 C17        -28.1340     0.3180     1.7980 ca         1 A1H      -0.090500
     10 C18        -26.9940    -0.1240     1.1040 ca         1 A1H      -0.137000
     11 C4         -24.5780    -0.2990    -3.0230 ca         1 A1H      -0.141000
     12 C5         -25.1190     0.3920    -1.9290 ca         1 A1H       0.127100
     13 C6         -24.9850     1.7900    -1.8540 ca         1 A1H      -0.141000
     14 C7         -24.3320     2.4920    -2.8830 ca         1 A1H      -0.080000
     15 O8         -25.7410    -0.3210    -0.9290 os         1 A1H      -0.253200
     16 C9         -22.5700     2.0060    -6.1920 cd         1 A1H       0.247900
     17 N10        -22.0160     3.0040    -6.9740 nd         1 A1H      -0.671000
     18 N12        -22.8970     3.9160    -5.1490 na         1 A1H      -0.296500
     19 H1         -23.5210    -0.1630    -4.8880 ha         1 A1H       0.114000
     20 H2         -21.9250     5.1360    -6.6450 h5         1 A1H       0.055100
     21 H3         -27.7970     1.0080    -2.0260 ha         1 A1H       0.128000
     22 H4         -29.8100     1.7970    -0.7930 ha         1 A1H       0.116000
     23 H5         -30.0290     1.3560     1.6510 ha         1 A1H       0.117000
     24 H6         -28.2330     0.1210     2.8640 ha         1 A1H       0.116000
     25 H7         -26.2110    -0.6650     1.6300 ha         1 A1H       0.128000
     26 H8         -24.6690    -1.3810    -3.0750 ha         1 A1H       0.130000
     27 H9         -25.3820     2.3340    -1.0010 ha         1 A1H       0.130000
     28 H10        -24.2440     3.5720    -2.8060 ha         1 A1H       0.114000
     29 H11        -22.5370     0.9680    -6.4960 h4         1 A1H       0.038100
     30 H12        -23.1690     4.6300    -4.4850 hn         1 A1H       0.352000
@<TRIPOS>BOND
     1     1     2 1   
     2     1    16 2   
     3     1    18 1   
     4     2     3 ar  
     5     2    14 ar  
     6     3    11 ar  
     7     3    19 1   
     8     4    17 2   
     9     4    18 1   
    10     4    20 1   
    11     5     6 ar  
    12     5    10 ar  
    13     5    15 1   
    14     6     7 ar  
    15     6    21 1   
    16     7     8 ar  
    17     7    22 1   
    18     8     9 ar  
    19     8    23 1   
    20     9    10 ar  
    21     9    24 1   
    22    10    25 1   
    23    11    12 ar  
    24    11    26 1   
    25    12    13 ar  
    26    12    15 1   
    27    13    14 ar  
    28    13    27 1   
    29    14    28 1   
    30    16    17 1   
    31    16    29 1   
    32    18    30 1   
@<TRIPOS>SUBSTRUCTURE
     1 A1H         1 TEMP              0 ****  ****    0 ROOT
