@<TRIPOS>MOLECULE
A1H
   47    50     1     0     0
SMALL
abcg2


@<TRIPOS>ATOM
      1 C1         -15.0630     0.5010     3.6290 ca         1 A1H       0.401900
      2 C2         -14.6300     1.7120     4.1600 ca         1 A1H      -0.110000
      3 C3         -13.5270     2.3050     3.5440 ca         1 A1H      -0.040000
      4 C13        -11.8310     0.2090     0.3440 ca         1 A1H       0.034100
      5 C14        -11.9370     1.0010    -0.7840 ca         1 A1H      -0.079000
      6 C15        -10.7670     1.3630    -1.4320 ca         1 A1H      -0.154000
      7 C16         -9.5450     0.9230    -0.9360 ca         1 A1H       0.349300
      8 C18        -10.5740    -0.1870     0.7780 ca         1 A1H       0.338900
      9 C19         -8.2530     1.2820    -1.6230 c3         1 A1H       0.125500
     10 C21         -7.9100     3.2940    -0.3540 c6         1 A1H       0.172300
     11 C22         -6.8310     4.2140     0.2240 c6         1 A1H      -0.091900
     12 C23         -5.7160     3.3920     0.8550 c6         1 A1H       0.176300
     13 C24         -5.0320     2.5680    -0.2350 c6         1 A1H      -0.091900
     14 C25         -6.0280     2.1530    -1.3230 c6         1 A1H       0.172300
     15 C4         -12.9230     1.6930     2.4630 ca         1 A1H      -0.226000
     16 C5         -13.4480     0.4760     2.0360 ca         1 A1H       0.588300
     17 N6         -14.4860    -0.1020     2.6020 nb         1 A1H      -0.687000
     18 O7         -12.9510    -0.2350     0.9980 os         1 A1H      -0.345400
     19 C8         -16.4300     2.7560     7.1500 cc         1 A1H       0.239900
     20 C9         -16.0190     1.6930     6.3340 cc         1 A1H      -0.214000
     21 C10        -15.3100     2.2930     5.3100 cd         1 A1H      -0.092000
     22 N11        -15.3430     3.6160     5.5740 na         1 A1H       0.000800
     23 N12        -16.0160     3.9180     6.6770 nd         1 A1H      -0.514800
     24 N17         -9.4620     0.1580     0.1510 nb         1 A1H      -0.634000
     25 N20         -7.3550     2.0070    -0.7540 n3         1 A1H      -0.713600
     26 H1         -15.9260    -0.0030     4.0530 h4         1 A1H       0.034100
     27 H2         -13.1180     3.2390     3.9080 ha         1 A1H       0.117000
     28 H3         -12.9040     1.3240    -1.1490 ha         1 A1H       0.137000
     29 H4         -10.8030     1.9840    -2.3170 ha         1 A1H       0.127000
     30 H5         -10.4760    -0.8150     1.6580 h4         1 A1H       0.037100
     31 H6          -7.7600     0.3570    -1.9350 h1         1 A1H       0.045700
     32 H7          -8.4860     1.8440    -2.5430 h1         1 A1H       0.045700
     33 H8          -8.3990     3.8010    -1.2020 h1         1 A1H       0.031950
     34 H9          -8.6890     3.1210     0.3930 h1         1 A1H       0.031950
     35 H10         -6.4010     4.8430    -0.5620 hc         1 A1H       0.051700
     36 H11         -7.2840     4.8880     0.9560 hc         1 A1H       0.051700
     37 H12         -6.1680     2.7090     1.5870 h1         1 A1H       0.047700
     38 H13         -4.5560     1.6890     0.2040 hc         1 A1H       0.051700
     39 H14         -4.2400     3.1700    -0.6880 hc         1 A1H       0.051700
     40 H15         -5.7250     1.1970    -1.7550 h1         1 A1H       0.031950
     41 H16         -6.0180     2.8780    -2.1540 h1         1 A1H       0.031950
     42 H17        -12.0680     2.1530     1.9890 ha         1 A1H       0.137000
     43 H18        -17.0070     2.7130     8.0620 h4         1 A1H       0.039100
     44 H19        -16.1920     0.6390     6.4780 ha         1 A1H       0.147000
     45 H20        -14.9580     4.3600     5.0130 hn         1 A1H       0.369000
     46 O26         -4.7320     4.1900     1.4810 oh         1 A1H      -0.662000
     47 H22         -5.1450     4.6490     2.2190 ho         1 A1H       0.440000
@<TRIPOS>BOND
     1     1     2 ar  
     2     1    17 ar  
     3     1    26 1   
     4     2     3 ar  
     5     2    21 1   
     6     3    15 ar  
     7     3    27 1   
     8     4     5 ar  
     9     4     8 ar  
    10     4    18 1   
    11     5     6 ar  
    12     5    28 1   
    13     6     7 ar  
    14     6    29 1   
    15     7     9 1   
    16     7    24 ar  
    17     8    24 ar  
    18     8    30 1   
    19     9    25 1   
    20     9    31 1   
    21     9    32 1   
    22    10    11 1   
    23    10    25 1   
    24    10    33 1   
    25    10    34 1   
    26    11    12 1   
    27    11    35 1   
    28    11    36 1   
    29    12    13 1   
    30    12    37 1   
    31    12    46 1   
    32    13    14 1   
    33    13    38 1   
    34    13    39 1   
    35    14    25 1   
    36    14    40 1   
    37    14    41 1   
    38    15    16 ar  
    39    15    42 1   
    40    16    17 ar  
    41    16    18 1   
    42    19    20 1   
    43    19    23 2   
    44    19    43 1   
    45    20    21 2   
    46    20    44 1   
    47    21    22 1   
    48    22    23 1   
    49    22    45 1   
    50    46    47 1   
@<TRIPOS>SUBSTRUCTURE
     1 A1H         1 TEMP              0 ****  ****    0 ROOT
