@<TRIPOS>MOLECULE
A1H
   51    56     1     0     0
SMALL
No Charge or Current Charge


@<TRIPOS>ATOM
      1 C4           4.5640    50.9590     1.9720 ca         1 A1H      -0.148000
      2 C5           3.2710    51.4390     1.7060 ca         1 A1H       0.174000
      3 C7           2.8190    51.4580     0.3510 ca         1 A1H      -0.009800
      4 C8           3.7160    50.9900    -0.6510 ca         1 A1H      -0.072000
      5 C10          5.4170    50.5090     1.0010 ca         1 A1H      -0.057000
      6 C13          0.7110    52.9130     0.6250 cc         1 A1H      -0.139100
      7 C15         -0.5290    52.1110    -1.1490 ca         1 A1H       0.373500
      8 C20          0.6920    51.4390    -1.1630 ca         1 A1H       0.254800
      9 C22         -3.7210    50.8960    -3.5880 c5         1 A1H       0.216500
     10 C24         -3.2270    50.0440    -5.8560 c5         1 A1H      -0.080900
     11 C26         -2.8430    48.1550    -4.0660 c6         1 A1H      -0.120400
     12 N2           6.5090    50.2780     2.8710 na         1 A1H       0.149500
     13 C3           5.2670    50.8060     3.2010 cc         1 A1H      -0.186100
     14 Cl6          2.2680    51.8870     3.0910 cl         1 A1H      -0.213000
     15 C9           5.0070    50.5180    -0.3350 ca         1 A1H      -0.085000
     16 N11          6.6480    50.0740     1.4960 nc         1 A1H      -0.287400
     17 C12          1.4790    51.9710    -0.0560 cd         1 A1H      -0.172000
     18 N14         -0.5000    53.0010    -0.0970 na         1 A1H      -0.323400
     19 N16         -1.5310    51.8420    -2.0170 nb         1 A1H      -0.743000
     20 C17         -1.2580    50.8470    -2.9050 ca         1 A1H       0.586900
     21 C18          0.0020    50.1440    -2.8920 ca         1 A1H       0.219900
     22 N19          1.0010    50.4230    -2.0040 nb         1 A1H      -0.564000
     23 N21         -2.3040    50.5720    -3.8210 nh         1 A1H      -0.755300
     24 C23         -4.1750    51.0230    -5.0740 c5         1 A1H      -0.080900
     25 C25         -2.2990    49.4400    -4.7580 c5         1 A1H       0.216500
     26 C27         -4.2480    48.3480    -3.4190 c6         1 A1H       0.167500
     27 N28         -5.3260    48.0670    -4.3880 n8         1 A1H      -0.998200
     28 C29         -4.4160    49.7600    -2.7780 c6         1 A1H      -0.120400
     29 H41          3.4350    51.0260    -1.6990 ha         1 A1H       0.128000
     30 H31         -3.8700    51.8520    -3.0640 h1         1 A1H       0.081200
     31 H47         -3.7690    49.2750    -6.4170 hc         1 A1H       0.052200
     32 H48         -2.6350    50.6000    -6.5920 hc         1 A1H       0.052200
     33 H49         -2.8600    47.3220    -4.7820 hc         1 A1H       0.057950
     34 H50         -2.1340    47.8580    -3.2820 hc         1 A1H       0.057950
     35 H37          8.5070    50.4860     3.4960 h1         1 A1H       0.063367
     36 H38          7.3280    50.2170     4.8130 h1         1 A1H       0.063367
     37 H39          7.7970    48.8610     3.7440 h1         1 A1H       0.063367
     38 H1           5.0030    51.0190     4.2300 h4         1 A1H       0.232000
     39 H42          5.6750    50.1730    -1.1210 ha         1 A1H       0.130000
     40 H30         -1.2740    53.6150     0.1250 hn         1 A1H       0.361000
     41 H44          0.2090    49.3420    -3.5970 h4         1 A1H       0.026100
     42 H45         -4.0310    52.0510    -5.4280 hc         1 A1H       0.052200
     43 H46         -5.2380    50.7970    -5.2090 hc         1 A1H       0.052200
     44 H32         -1.3060    49.2300    -5.1800 h1         1 A1H       0.081200
     45 H33         -4.3640    47.5960    -2.6220 h1         1 A1H       0.060700
     46 H35         -6.2310    48.2190    -3.9300 hn         1 A1H       0.393000
     47 H36         -5.2960    48.7850    -5.1170 hn         1 A1H       0.393000
     48 H51         -3.9760    49.7420    -1.7720 hc         1 A1H       0.057950
     49 H52         -5.4780    49.9990    -2.6330 hc         1 A1H       0.057950
     50 C1           7.6030    49.9400     3.7890 c3         1 A1H       0.057900
     51 H43          0.9180    53.5260     1.4990 h4         1 A1H       0.224000
@<TRIPOS>BOND
     1     1     2 ar  
     2     1     5 ar  
     3     1    13 2   
     4     2     3 ar  
     5     2    14 1   
     6     3     4 ar  
     7     3    17 1   
     8     4    15 ar  
     9     4    29 1   
    10     5    15 ar  
    11     5    16 2   
    12     6    17 2   
    13     6    18 1   
    14     6    51 1   
    15     7     8 ar  
    16     7    18 1   
    17     7    19 ar  
    18     8    17 1   
    19     8    22 ar  
    20     9    23 1   
    21     9    24 1   
    22     9    28 1   
    23     9    30 1   
    24    10    24 1   
    25    10    25 1   
    26    10    31 1   
    27    10    32 1   
    28    11    25 1   
    29    11    26 1   
    30    11    33 1   
    31    11    34 1   
    32    12    13 1   
    33    12    16 1   
    34    12    50 1   
    35    13    38 1   
    36    15    39 1   
    37    18    40 1   
    38    19    20 ar  
    39    20    21 ar  
    40    20    23 1   
    41    21    22 ar  
    42    21    41 1   
    43    23    25 1   
    44    24    42 1   
    45    24    43 1   
    46    25    44 1   
    47    26    27 1   
    48    26    28 1   
    49    26    45 1   
    50    27    46 1   
    51    27    47 1   
    52    28    48 1   
    53    28    49 1   
    54    35    50 1   
    55    36    50 1   
    56    37    50 1   
@<TRIPOS>SUBSTRUCTURE
     1 A1H         1 TEMP              0 ****  ****    0 ROOT
