@<TRIPOS>MOLECULE
A1H
   61    62     1     0     0
SMALL
No Charge or Current Charge


@<TRIPOS>ATOM
      1 C10        212.9190   183.9170   174.0600 ca         1 A1H       0.159100
      2 C13        212.3300   184.0030   177.2070 c          1 A1H       0.579100
      3 C15        212.4660   185.8680   178.9580 c3         1 A1H      -0.041300
      4 C21        213.4410   186.1610   180.1440 c          1 A1H       0.700000
      5 C26        215.2930   183.4680   173.7100 ca         1 A1H      -0.071000
      6 C02        217.8200   183.6950   168.4850 c5         1 A1H       0.136300
      7 C03        217.5720   184.9170   169.4490 c5         1 A1H       0.154800
      8 C05        216.4950   183.0890   170.4050 c5         1 A1H       0.151500
      9 C06        216.1220   182.2300   171.6420 c3         1 A1H      -0.015100
     10 C07        215.0020   182.8250   172.4910 ca         1 A1H      -0.131300
     11 C08        213.6650   182.7330   172.0620 ca         1 A1H      -0.071000
     12 C09        212.6320   183.2790   172.8430 ca         1 A1H      -0.159000
     13 C12        212.0100   185.0370   176.0900 c3         1 A1H       0.070600
     14 C16        210.9810   186.0880   179.3520 c3         1 A1H      -0.064400
     15 C18        209.1570   187.8110   180.0350 c3         1 A1H      -0.075400
     16 C19        208.6040   187.0510   181.2610 c3         1 A1H       0.143800
     17 C25        214.2600   184.0140   174.4920 ca         1 A1H      -0.159000
     18 C27        217.5280   182.4660   169.4060 c5         1 A1H       0.095300
     19 C30        220.2100   180.6690   171.3140 c3         1 A1H      -0.157100
     20 N04        217.1610   184.3610   170.7700 n7         1 A1H      -0.819400
     21 N14        212.6900   184.4920   178.4470 ns         1 A1H      -0.466900
     22 N20        207.1940   187.3990   181.5220 n8         1 A1H      -1.004200
     23 O11        211.8580   184.4400   174.7760 os         1 A1H      -0.335100
     24 O24        212.3380   182.7910   177.0250 o          1 A1H      -0.638100
     25 O28        218.7800   182.1510   170.0990 os         1 A1H      -0.458100
     26 O31        218.0800   179.9680   170.4040 o          1 A1H      -0.488000
     27 H1         212.7190   186.5770   178.1600 h1         1 A1H       0.039700
     28 H2         211.2410   187.8290   180.6350 hc         1 A1H       0.056700
     29 H3         210.9760   188.2140   178.9390 hc         1 A1H       0.056700
     30 H4         216.3230   183.5500   174.0500 ha         1 A1H       0.099500
     31 H5         218.8670   183.6830   168.1500 h1         1 A1H       0.045700
     32 H6         218.4710   185.5410   169.5500 h1         1 A1H       0.057700
     33 H7         216.7760   185.5610   169.0480 h1         1 A1H       0.057700
     34 H8         215.5570   183.2950   169.8660 h1         1 A1H       0.084700
     35 H9         215.8090   181.2360   171.3010 hc         1 A1H       0.045700
     36 H10        217.0090   182.0620   172.2640 hc         1 A1H       0.045700
     37 H11        213.4250   182.2390   171.1220 ha         1 A1H       0.099500
     38 H12        211.6010   183.2060   172.5050 ha         1 A1H       0.139500
     39 H13        212.7950   185.8030   176.0830 h1         1 A1H       0.081200
     40 H14        211.0780   185.5360   176.3760 h1         1 A1H       0.081200
     41 H15        210.3350   185.8030   178.5130 hc         1 A1H       0.025200
     42 H16        210.7310   185.4150   180.1810 hc         1 A1H       0.025200
     43 H17        209.0220   188.8890   180.1930 hc         1 A1H       0.031700
     44 H18        208.5710   187.5480   179.1450 hc         1 A1H       0.031700
     45 H19        208.6700   185.9670   181.0920 h1         1 A1H       0.033200
     46 H20        209.2000   187.3010   182.1500 h1         1 A1H       0.033200
     47 H21        214.5210   184.5070   175.4230 ha         1 A1H       0.139500
     48 H22        217.1480   181.6040   168.8410 h1         1 A1H       0.078700
     49 H23        220.3360   179.6470   171.6880 hc         1 A1H       0.069033
     50 H24        221.0370   180.9710   170.6620 hc         1 A1H       0.069033
     51 H25        220.2680   181.4090   172.1200 hc         1 A1H       0.069033
     52 H26        218.0170   184.1000   171.2750 hn         1 A1H       0.414000
     53 H28        212.9660   183.7900   179.1240 hn         1 A1H       0.300500
     54 H29        206.8880   186.9310   182.3840 hn         1 A1H       0.381500
     55 H30        207.1350   188.3970   181.7540 hn         1 A1H       0.381500
     56 H32        217.2890   183.0570   166.7060 ho         1 A1H       0.437000
     57 C29        218.9000   180.8620   170.5650 c          1 A1H       0.600100
     58 O22        214.2040   187.1110   180.0410 o          1 A1H      -0.716000
     59 C17        210.6560   187.5480   179.7500 c3         1 A1H      -0.068400
     60 O01        216.9520   183.7260   167.3420 oh         1 A1H      -0.644000
     61 O23        213.4750   185.3740   181.0810 o          1 A1H      -0.716000
@<TRIPOS>BOND
     1     1    12 ar  
     2     1    17 ar  
     3     1    23 1   
     4     2    13 1   
     5     2    21 1   
     6     2    24 2   
     7     3     4 1   
     8     3    14 1   
     9     3    21 1   
    10     3    27 1   
    11     4    58 1   
    12     4    61 1   
    13     5    10 ar  
    14     5    17 ar  
    15     5    30 1   
    16     6     7 1   
    17     6    18 1   
    18     6    31 1   
    19     6    60 1   
    20     7    20 1   
    21     7    32 1   
    22     7    33 1   
    23     8     9 1   
    24     8    18 1   
    25     8    20 1   
    26     8    34 1   
    27     9    10 1   
    28     9    35 1   
    29     9    36 1   
    30    10    11 ar  
    31    11    12 ar  
    32    11    37 1   
    33    12    38 1   
    34    13    23 1   
    35    13    39 1   
    36    13    40 1   
    37    14    41 1   
    38    14    42 1   
    39    14    59 1   
    40    15    16 1   
    41    15    43 1   
    42    15    44 1   
    43    15    59 1   
    44    16    22 1   
    45    16    45 1   
    46    16    46 1   
    47    17    47 1   
    48    18    25 1   
    49    18    48 1   
    50    19    49 1   
    51    19    50 1   
    52    19    51 1   
    53    19    57 1   
    54    20    52 1   
    55    21    53 1   
    56    22    54 1   
    57    22    55 1   
    58    25    57 1   
    59    26    57 2   
    60    28    59 1   
    61    29    59 1   
    62    56    60 1   
@<TRIPOS>SUBSTRUCTURE
     1 A1H         1 TEMP              0 ****  ****    0 ROOT
