@<TRIPOS>MOLECULE
A1H
   19    20     1     0     0
SMALL
abcg2


@<TRIPOS>ATOM
      1 C2           2.2600     7.5640    21.7280 ca         1 A1H       0.122000
      2 C3           1.9840     7.6340    23.0830 ca         1 A1H      -0.108500
      3 C5          -0.3620     7.2520    22.6160 ca         1 A1H      -0.109500
      4 C6          -0.0550     7.1910    21.2550 ca         1 A1H      -0.084000
      5 C7           1.2460     7.3450    20.8070 ca         1 A1H      -0.108500
      6 C8          -1.7390     7.0800    23.0850 cc         1 A1H       0.301500
      7 C10         -3.5830     6.9320    24.2810 cd         1 A1H      -0.175000
      8 CL1          3.8920     7.7520    21.1740 cl         1 A1H      -0.207000
      9 C4           0.6770     7.4770    23.5170 ca         1 A1H      -0.084000
     10 C9          -2.2400     7.1900    24.4000 cc         1 A1H      -0.212000
     11 N11         -3.8070     6.6940    22.9780 na         1 A1H       0.003800
     12 N12         -2.7140     6.7760    22.2380 nd         1 A1H      -0.518800
     13 H14          2.7770     7.8070    23.7990 ha         1 A1H       0.128500
     14 H16         -0.8410     7.0220    20.5320 ha         1 A1H       0.125000
     15 H17          1.4650     7.2930    19.7490 ha         1 A1H       0.128500
     16 H19         -4.3750     6.9030    25.0110 h4         1 A1H       0.155000
     17 H15          0.4800     7.5300    24.5800 ha         1 A1H       0.125000
     18 H18         -1.7070     7.4260    25.3050 ha         1 A1H       0.146000
     19 H13         -4.6880     6.4690    22.5440 hn         1 A1H       0.373000
@<TRIPOS>BOND
     1     1     2 ar  
     2     1     5 ar  
     3     1     8 1   
     4     2     9 ar  
     5     2    13 1   
     6     3     4 ar  
     7     3     6 1   
     8     3     9 ar  
     9     4     5 ar  
    10     4    14 1   
    11     5    15 1   
    12     6    10 1   
    13     6    12 2   
    14     7    10 2   
    15     7    11 1   
    16     7    16 1   
    17     9    17 1   
    18    10    18 1   
    19    11    12 1   
    20    11    19 1   
@<TRIPOS>SUBSTRUCTURE
     1 A1H         1 TEMP              0 ****  ****    0 ROOT
