@<TRIPOS>MOLECULE
A1H
   88    93     1     0     0
SMALL
No Charge or Current Charge


@<TRIPOS>ATOM
      1 C2           4.7140   -17.6500   -11.7900 c          1 A1H       0.655300
      2 O1           4.7420   -18.8030   -12.2180 o          1 A1H      -0.640100
      3 C41          7.3230   -13.1700    -6.8330 ca         1 A1H      -0.072000
      4 C42          6.9180   -11.8470    -6.6090 ca         1 A1H      -0.125000
      5 C43          5.6520   -11.3960    -7.0190 ca         1 A1H      -0.037300
      6 C44          5.2900    -9.9330    -6.7640 c3         1 A1H      -0.054800
      7 C55          3.3740   -11.8660    -8.1480 c3         1 A1H       0.353300
      8 C59          5.1960   -13.6340    -7.8850 ca         1 A1H      -0.043000
      9 C60          6.4000   -16.3370    -8.7860 cc         1 A1H      -0.054000
     10 C11          6.6250   -19.9200   -20.4090 c6         1 A1H       0.153100
     11 C13          6.8880   -22.0450   -19.3060 c6         1 A1H       0.153100
     12 C14          6.3620   -21.4450   -17.9680 c6         1 A1H       0.126300
     13 C16          1.8280   -16.2330   -13.9080 c3         1 A1H      -0.102400
     14 C17          1.0640   -15.7310   -12.6580 c3         1 A1H       0.232800
     15 C21          1.0740   -11.7870   -11.7310 ca         1 A1H      -0.264500
     16 C22          0.2180   -12.0300   -10.6380 ca         1 A1H      -0.008000
     17 C23         -0.0060   -11.0220    -9.6840 ca         1 A1H      -0.130500
     18 C24          0.6120    -9.7680    -9.8230 ca         1 A1H      -0.060000
     19 C25          1.4610    -9.5220   -10.9160 ca         1 A1H      -0.130500
     20 C26          1.6980   -10.5300   -11.8680 ca         1 A1H      -0.008000
     21 C28          2.9100   -14.5720   -11.4100 c3         1 A1H       0.204800
     22 C29          4.0400   -15.2050   -12.2670 c3         1 A1H       0.098000
     23 C30          5.5030   -17.2890   -10.5470 cd         1 A1H      -0.029600
     24 N3           3.9020   -16.6790   -12.4540 n          1 A1H      -0.380800
     25 C4           3.0430   -17.1470   -13.5930 c3         1 A1H       0.033700
     26 C5           3.8550   -17.4350   -14.8890 c          1 A1H       0.593100
     27 N6           3.2160   -18.2370   -15.8140 ns         1 A1H      -0.503900
     28 C7           3.7970   -18.6620   -17.0940 c3         1 A1H       0.103000
     29 C8           4.9170   -19.7200   -16.9270 c3         1 A1H       0.137800
     30 N9           5.4400   -20.2870   -18.1990 n3         1 A1H      -0.720600
     31 C10          6.0880   -19.2740   -19.0950 c6         1 A1H       0.126300
     32 O12          7.5210   -21.0150   -20.1030 os         1 A1H      -0.451000
     33 O15          4.9740   -16.9810   -15.0980 o          1 A1H      -0.590100
     34 N18          1.5790   -14.4710   -12.0720 n3         1 A1H      -0.789500
     35 S19          1.2990   -13.0530   -12.9870 sy         1 A1H       1.178600
     36 O20          2.4960   -12.7850   -13.7900 o          1 A1H      -0.551500
     37 O27         -0.0100   -13.2400   -13.6230 o          1 A1H      -0.551500
     38 C31          6.3050   -18.2580    -9.9630 cc         1 A1H      -0.216100
     39 N32          6.8350   -17.6190    -8.8880 na         1 A1H       0.134100
     40 C33          7.7400   -18.2360    -8.0290 cc         1 A1H      -0.101000
     41 C34          8.1900   -17.4430    -6.9660 cd         1 A1H      -0.174600
     42 C35          9.1330   -18.0630    -5.9790 c          1 A1H       0.726600
     43 O36          9.5340   -17.3820    -5.0470 o          1 A1H      -0.703000
     44 O37          9.4730   -19.2270    -6.1330 o          1 A1H      -0.703000
     45 C38          7.7560   -16.0630    -6.8220 cd         1 A1H      -0.020000
     46 C39          6.8960   -15.4840    -7.7440 cc         1 A1H      -0.087000
     47 C40          6.4690   -14.0900    -7.4790 ca         1 A1H       0.002000
     48 C54          4.7670   -12.3040    -7.6580 ca         1 A1H      -0.203300
     49 F56          2.5990   -12.9020    -8.5430 f          1 A1H      -0.121000
     50 F57          2.6670   -11.2150    -7.1960 f          1 A1H      -0.121000
     51 F58          3.4790   -11.0370    -9.2080 f          1 A1H      -0.121000
     52 N61          5.5730   -16.1050    -9.7950 nd         1 A1H      -0.327600
     53 H1           8.3290   -13.4510    -6.5360 ha         1 A1H       0.131000
     54 H2           7.6080   -11.1620    -6.1220 ha         1 A1H       0.111000
     55 H3           4.5460    -9.8450    -5.9640 hc         1 A1H       0.046033
     56 H4           6.1640    -9.3470    -6.4570 hc         1 A1H       0.046033
     57 H5           4.8860    -9.4520    -7.6620 hc         1 A1H       0.046033
     58 H6           4.5190   -14.3350    -8.3600 ha         1 A1H       0.143000
     59 H7           7.1650   -19.1690   -21.0020 h1         1 A1H       0.046200
     60 H8           5.7860   -20.2950   -21.0120 h1         1 A1H       0.046200
     61 H9           6.0560   -22.4840   -19.8750 h1         1 A1H       0.046200
     62 H10          7.6190   -22.8390   -19.0990 h1         1 A1H       0.046200
     63 H11          5.8470   -22.2380   -17.4070 h1         1 A1H       0.045200
     64 H12          7.2250   -21.1300   -17.3620 h1         1 A1H       0.045200
     65 H13          2.1450   -15.3890   -14.5310 hc         1 A1H       0.059700
     66 H14          1.1230   -16.8040   -14.5240 hc         1 A1H       0.059700
     67 H15          0.0070   -15.6100   -12.9290 h1         1 A1H       0.062700
     68 H16          1.0780   -16.5270   -11.9000 h1         1 A1H       0.062700
     69 H17         -0.2750   -12.9940   -10.5300 ha         1 A1H       0.129000
     70 H18         -0.6640   -11.2130    -8.8390 ha         1 A1H       0.114000
     71 H19          0.4350    -8.9880    -9.0850 ha         1 A1H       0.111000
     72 H20          1.9400    -8.5520   -11.0240 ha         1 A1H       0.114000
     73 H21          2.3530   -10.3250   -12.7130 ha         1 A1H       0.129000
     74 H22          3.2450   -13.5770   -11.0850 h1         1 A1H       0.074200
     75 H23          2.8170   -15.1730   -10.4960 h1         1 A1H       0.074200
     76 H24          5.0160   -14.9590   -11.8390 h1         1 A1H       0.080200
     77 H25          4.0480   -14.7270   -13.2530 h1         1 A1H       0.080200
     78 H26          2.6150   -18.1110   -13.2900 h1         1 A1H       0.070700
     79 H27          2.2910   -18.5730   -15.5700 hn         1 A1H       0.309500
     80 H28          4.1920   -17.7770   -17.6090 h1         1 A1H       0.057200
     81 H29          2.9960   -19.0840   -17.7150 h1         1 A1H       0.057200
     82 H30          4.5080   -20.5330   -16.3130 h1         1 A1H       0.047200
     83 H31          5.7400   -19.2730   -16.3530 h1         1 A1H       0.047200
     84 H33          6.9270   -18.7860   -18.5760 h1         1 A1H       0.045200
     85 H34          5.3760   -18.4840   -19.3710 h1         1 A1H       0.045200
     86 H35          6.5160   -19.2870   -10.2280 h4         1 A1H       0.243000
     87 H36          8.0090   -19.2660    -8.2250 h4         1 A1H       0.167000
     88 H38          8.1040   -15.5040    -5.9620 ha         1 A1H       0.146000
@<TRIPOS>BOND
     1     1     2 2   
     2     1    23 1   
     3     1    24 1   
     4     3     4 ar  
     5     3    47 ar  
     6     3    53 1   
     7     4     5 ar  
     8     4    54 1   
     9     5     6 1   
    10     5    48 ar  
    11     6    55 1   
    12     6    56 1   
    13     6    57 1   
    14     7    48 1   
    15     7    49 1   
    16     7    50 1   
    17     7    51 1   
    18     8    47 ar  
    19     8    48 ar  
    20     8    58 1   
    21     9    39 1   
    22     9    46 1   
    23     9    52 2   
    24    10    31 1   
    25    10    32 1   
    26    10    59 1   
    27    10    60 1   
    28    11    12 1   
    29    11    32 1   
    30    11    61 1   
    31    11    62 1   
    32    12    30 1   
    33    12    63 1   
    34    12    64 1   
    35    13    14 1   
    36    13    25 1   
    37    13    65 1   
    38    13    66 1   
    39    14    34 1   
    40    14    67 1   
    41    14    68 1   
    42    15    16 ar  
    43    15    20 ar  
    44    15    35 1   
    45    16    17 ar  
    46    16    69 1   
    47    17    18 ar  
    48    17    70 1   
    49    18    19 ar  
    50    18    71 1   
    51    19    20 ar  
    52    19    72 1   
    53    20    73 1   
    54    21    22 1   
    55    21    34 1   
    56    21    74 1   
    57    21    75 1   
    58    22    24 1   
    59    22    76 1   
    60    22    77 1   
    61    23    38 2   
    62    23    52 1   
    63    24    25 1   
    64    25    26 1   
    65    25    78 1   
    66    26    27 1   
    67    26    33 2   
    68    27    28 1   
    69    27    79 1   
    70    28    29 1   
    71    28    80 1   
    72    28    81 1   
    73    29    30 1   
    74    29    82 1   
    75    29    83 1   
    76    30    31 1   
    77    31    84 1   
    78    31    85 1   
    79    34    35 1   
    80    35    36 2   
    81    35    37 2   
    82    38    39 1   
    83    38    86 1   
    84    39    40 1   
    85    40    41 2   
    86    40    87 1   
    87    41    42 1   
    88    41    45 1   
    89    42    43 1   
    90    42    44 1   
    91    45    46 2   
    92    45    88 1   
    93    46    47 1   
@<TRIPOS>SUBSTRUCTURE
     1 A1H         1 TEMP              0 ****  ****    0 ROOT
