@<TRIPOS>MOLECULE
A1H
   30    32     1     0     0
SMALL
No Charge or Current Charge


@<TRIPOS>ATOM
      1 N1          -7.2990    10.1370    13.8270 nv         1 A1H      -1.089000
      2 C4          -5.4850     9.7080    10.6550 ca         1 A1H       0.389900
      3 C6          -6.3840     7.6780    11.2480 ca         1 A1H       0.368300
      4 C7          -6.7130     6.2060    11.1560 c5         1 A1H      -0.210000
      5 C8          -7.5230     6.0920    12.4470 ce         1 A1H       0.324300
      6 C10         -6.9470     8.2110    12.4070 ca         1 A1H      -0.071600
      7 C15        -10.1430     3.8940    15.8160 ca         1 A1H      -0.132000
      8 C2          -6.7670     9.5700    12.7020 ca         1 A1H       0.418000
      9 C3          -6.0160    10.3290    11.8020 ca         1 A1H      -0.260000
     10 N5          -5.6590     8.3940    10.3680 nb         1 A1H      -0.676000
     11 N9          -7.6440     7.2080    13.1300 nf         1 A1H      -0.521100
     12 O12         -7.8970     3.7300    12.0400 o          1 A1H      -0.568100
     13 N13         -8.8040     4.6670    13.9440 ns         1 A1H      -0.126000
     14 C14         -9.4850     3.6040    14.6060 ca         1 A1H      -0.072000
     15 C16        -10.8180     2.8570    16.4820 ca         1 A1H      -0.136000
     16 C17        -10.8180     1.5680    15.9240 ca         1 A1H       0.310900
     17 N18        -10.1910     1.2710    14.7630 nb         1 A1H      -0.646000
     18 C19         -9.5380     2.2710    14.1190 ca         1 A1H       0.319900
     19 H23         -7.6750     9.5060    14.5320 hn         1 A1H       0.488500
     20 H22         -6.9350    11.0280    14.1550 hn         1 A1H       0.488500
     21 H25         -4.8980    10.2830     9.9400 h4         1 A1H       0.020100
     22 H26         -7.3090     5.9640    10.2710 hc         1 A1H       0.112200
     23 H24         -5.8420    11.3860    11.9740 ha         1 A1H       0.124000
     24 H27         -8.8610     5.5570    14.4230 hn         1 A1H       0.176000
     25 H29        -11.3370     3.0430    17.4180 ha         1 A1H       0.123000
     26 H30        -11.3350     0.7480    16.4220 h4         1 A1H       0.022100
     27 H31         -9.0530     1.9770    13.1920 h4         1 A1H       0.052100
     28 H1          -5.8190     5.5750    11.1710 hc         1 A1H       0.112200
     29 C11         -8.0750     4.7120    12.7600 c          1 A1H       0.541800
     30 H28        -10.1320     4.8990    16.2330 ha         1 A1H       0.116000
@<TRIPOS>BOND
     1     1     8 1   
     2     1    19 1   
     3     1    20 1   
     4     2     9 ar  
     5     2    10 ar  
     6     2    21 1   
     7     3     4 1   
     8     3     6 ar  
     9     3    10 ar  
    10     4     5 1   
    11     4    22 1   
    12     4    28 1   
    13     5    11 2   
    14     5    29 1   
    15     6     8 ar  
    16     6    11 1   
    17     7    14 ar  
    18     7    15 ar  
    19     7    30 1   
    20     8     9 ar  
    21     9    23 1   
    22    12    29 2   
    23    13    14 1   
    24    13    24 1   
    25    13    29 1   
    26    14    18 ar  
    27    15    16 ar  
    28    15    25 1   
    29    16    17 ar  
    30    16    26 1   
    31    17    18 ar  
    32    18    27 1   
@<TRIPOS>SUBSTRUCTURE
     1 A1H         1 TEMP              0 ****  ****    0 ROOT
