@<TRIPOS>MOLECULE
A1H
   66    71     1     0     0
SMALL
No Charge or Current Charge


@<TRIPOS>ATOM
      1 C2          41.7670    13.9900    33.5020 c          1 A1H       0.530200
      2 C3          40.5400    13.9230    34.3680 cc         1 A1H      -0.106400
      3 C4          40.5590    14.5550    35.7740 c5         1 A1H      -0.022500
      4 C5          41.6510    13.9370    36.7030 c5         1 A1H      -0.065900
      5 C6          41.8560    15.0780    37.7260 c5         1 A1H      -0.077900
      6 C7          42.0510    16.2710    36.7600 c5         1 A1H      -0.077900
      7 C8          40.8730    16.0920    35.7560 c5         1 A1H      -0.065900
      8 C15         44.9890    12.4570    32.3440 ca         1 A1H      -0.085500
      9 C16         45.8990    11.4270    32.6430 ca         1 A1H      -0.116500
     10 C17         45.6160    10.1050    32.2600 ca         1 A1H      -0.102000
     11 C18         44.4230     9.8130    31.5790 ca         1 A1H      -0.116500
     12 C19         43.5120    10.8420    31.2800 ca         1 A1H      -0.085500
     13 C21         38.0420    11.9730    35.6010 c3         1 A1H      -0.092100
     14 N22         36.8650    13.2320    33.7470 na         1 A1H      -0.021100
     15 C24         35.2100    12.6090    32.5510 cc         1 A1H       0.433500
     16 C31         36.4360    14.3990    33.1440 ca         1 A1H       0.161500
     17 C32         34.1630    11.7770    31.9630 ca         1 A1H      -0.111900
     18 C33         32.8030    12.1600    31.9860 ca         1 A1H      -0.175000
     19 C34         31.8470    11.2740    31.4610 ca         1 A1H       0.085100
     20 C36         32.2830    10.0270    30.9520 ca         1 A1H       0.315900
     21 C38         34.4940    10.4970    31.4720 ca         1 A1H       0.328900
     22 O1          42.8000    14.5720    33.8160 o          1 A1H      -0.539000
     23 C9          39.3790    13.2770    33.8940 cd         1 A1H      -0.175800
     24 C10         39.4500    12.6420    32.5910 cd         1 A1H       0.350500
     25 N11         40.5260    12.6610    31.8180 nc         1 A1H      -0.425300
     26 N12         41.6430    13.3230    32.2640 n          1 A1H      -0.129800
     27 C13         42.7980    13.2820    31.3380 c3         1 A1H       0.158300
     28 C14         43.7910    12.1690    31.6600 ca         1 A1H      -0.113300
     29 C20         38.0500    13.1860    34.6410 c3         1 A1H       0.156500
     30 N23         36.1380    12.1040    33.3710 nd         1 A1H      -0.516100
     31 C25         35.3840    14.0290    32.3540 ca         1 A1H      -0.379900
     32 C26         34.8030    14.9760    31.5130 ca         1 A1H       0.459900
     33 N27         33.8390    14.6970    30.6130 nv         1 A1H      -1.068900
     34 N28         35.2270    16.2470    31.5210 nb         1 A1H      -0.310000
     35 C29         36.2470    16.5360    32.3660 ca         1 A1H       0.200900
     36 N30         36.8930    15.6660    33.1770 nb         1 A1H      -0.230000
     37 O35         30.5200    11.6180    31.4580 oh         1 A1H      -0.522100
     38 N37         33.5820     9.6350    30.9590 nb         1 A1H      -0.635000
     39 H1          39.6150    14.4280    36.3060 hc         1 A1H       0.049700
     40 H2          41.3100    13.0090    37.1780 hc         1 A1H       0.049200
     41 H3          42.5860    13.7010    36.1850 hc         1 A1H       0.049200
     42 H4          42.7280    14.9130    38.3700 hc         1 A1H       0.044200
     43 H5          40.9820    15.2120    38.3760 hc         1 A1H       0.044200
     44 H6          43.0200    16.2130    36.2500 hc         1 A1H       0.044200
     45 H7          42.0150    17.2370    37.2760 hc         1 A1H       0.044200
     46 H8          41.1340    16.4700    34.7610 hc         1 A1H       0.049200
     47 H9          39.9950    16.6630    36.0780 hc         1 A1H       0.049200
     48 H10         45.2150    13.4770    32.6480 ha         1 A1H       0.119000
     49 H11         46.8220    11.6550    33.1710 ha         1 A1H       0.112500
     50 H12         46.3200     9.3090    32.4920 ha         1 A1H       0.111000
     51 H13         44.2020     8.7890    31.2840 ha         1 A1H       0.112500
     52 H14         42.5880    10.6070    30.7560 ha         1 A1H       0.119000
     53 H15         38.8720    12.0370    36.3130 hc         1 A1H       0.055033
     54 H16         37.1060    11.9390    36.1720 hc         1 A1H       0.055033
     55 H17         38.1440    11.0340    35.0440 hc         1 A1H       0.055033
     56 H18         32.5030    13.1130    32.4180 ha         1 A1H       0.127000
     57 H19         31.5670     9.3170    30.5390 h4         1 A1H       0.037100
     58 H20         35.5280    10.1520    31.4730 h4         1 A1H       0.035100
     59 H21         38.6210    12.1020    32.1530 h4         1 A1H       0.054800
     60 H22         43.3100    14.2530    31.3550 h1         1 A1H       0.074200
     61 H23         42.4300    13.1450    30.3130 h1         1 A1H       0.074200
     62 H24         37.9330    14.0820    35.2580 h1         1 A1H       0.091700
     63 H25         33.6500    15.3880    29.8920 hn         1 A1H       0.503500
     64 H26         33.6590    13.7270    30.3750 hn         1 A1H       0.503500
     65 H27         36.5970    17.5670    32.3780 h5         1 A1H       0.049100
     66 H28         30.4210    12.5100    31.8550 ho         1 A1H       0.469000
@<TRIPOS>BOND
     1     1     2 1   
     2     1    22 2   
     3     1    26 1   
     4     2     3 1   
     5     2    23 2   
     6     3     4 1   
     7     3     7 1   
     8     3    39 1   
     9     4     5 1   
    10     4    40 1   
    11     4    41 1   
    12     5     6 1   
    13     5    42 1   
    14     5    43 1   
    15     6     7 1   
    16     6    44 1   
    17     6    45 1   
    18     7    46 1   
    19     7    47 1   
    20     8     9 ar  
    21     8    28 ar  
    22     8    48 1   
    23     9    10 ar  
    24     9    49 1   
    25    10    11 ar  
    26    10    50 1   
    27    11    12 ar  
    28    11    51 1   
    29    12    28 ar  
    30    12    52 1   
    31    13    29 1   
    32    13    53 1   
    33    13    54 1   
    34    13    55 1   
    35    14    16 1   
    36    14    29 1   
    37    14    30 1   
    38    15    17 1   
    39    15    30 2   
    40    15    31 1   
    41    16    31 ar  
    42    16    36 ar  
    43    17    18 ar  
    44    17    21 ar  
    45    18    19 ar  
    46    18    56 1   
    47    19    20 ar  
    48    19    37 1   
    49    20    38 ar  
    50    20    57 1   
    51    21    38 ar  
    52    21    58 1   
    53    23    24 1   
    54    23    29 1   
    55    24    25 2   
    56    24    59 1   
    57    25    26 1   
    58    26    27 1   
    59    27    28 1   
    60    27    60 1   
    61    27    61 1   
    62    29    62 1   
    63    31    32 ar  
    64    32    33 1   
    65    32    34 ar  
    66    33    63 1   
    67    33    64 1   
    68    34    35 ar  
    69    35    36 ar  
    70    35    65 1   
    71    37    66 1   
@<TRIPOS>SUBSTRUCTURE
     1 A1H         1 TEMP              0 ****  ****    0 ROOT
