@<TRIPOS>MOLECULE
A1H
   66    71     1     0     0
SMALL
abcg2


@<TRIPOS>ATOM
      1 C2          41.4960    13.7220    33.3360 c          1 A1H       0.530200
      2 C3          40.3730    13.7010    34.2720 cc         1 A1H      -0.106400
      3 C4          40.4780    14.5780    35.4830 c5         1 A1H      -0.022500
      4 C5          41.6180    14.1970    36.4520 c5         1 A1H      -0.065900
      5 C6          41.9340    15.5130    37.1580 c5         1 A1H      -0.077900
      6 C7          41.8560    16.5430    36.0330 c5         1 A1H      -0.077900
      7 C8          40.6630    16.0930    35.1820 c5         1 A1H      -0.065900
      8 C15         44.8550    12.5310    31.9900 ca         1 A1H      -0.085500
      9 C16         45.8960    11.7210    32.4250 ca         1 A1H      -0.116500
     10 C17         45.6840    10.3650    32.6300 ca         1 A1H      -0.102000
     11 C18         44.4280     9.8210    32.3910 ca         1 A1H      -0.116500
     12 C19         43.3920    10.6300    31.9490 ca         1 A1H      -0.085500
     13 C21         37.9680    11.3850    35.4820 c3         1 A1H      -0.092100
     14 N22         36.9040    13.0640    34.0220 na         1 A1H      -0.021100
     15 C24         35.3050    12.7150    32.6440 cc         1 A1H       0.433500
     16 C31         36.4780    14.2970    33.6830 ca         1 A1H       0.161500
     17 C32         34.3860    11.9180    31.8290 ca         1 A1H      -0.111900
     18 C33         33.0190    12.1730    31.8080 ca         1 A1H      -0.175000
     19 C34         32.1980    11.3680    31.0290 ca         1 A1H       0.085100
     20 C36         32.7860    10.3260    30.3100 ca         1 A1H       0.315900
     21 C38         34.8710    10.8540    31.0730 ca         1 A1H       0.328900
     22 O1          42.5060    14.3990    33.4820 o          1 A1H      -0.539000
     23 C9          39.3150    12.8930    33.9860 cd         1 A1H      -0.175800
     24 C10         39.3610    12.1040    32.7970 cd         1 A1H       0.350500
     25 N11         40.3390    12.1230    31.9600 nc         1 A1H      -0.425300
     26 N12         41.3670    12.9180    32.2240 n          1 A1H      -0.129800
     27 C13         42.4650    12.8640    31.2640 c3         1 A1H       0.158300
     28 C14         43.5960    11.9940    31.7470 ca         1 A1H      -0.113300
     29 C20         38.0690    12.7580    34.8350 c3         1 A1H       0.156500
     30 N23         36.2050    12.1150    33.3870 nd         1 A1H      -0.516100
     31 C25         35.4270    14.1260    32.7810 ca         1 A1H      -0.379900
     32 C26         34.8890    15.3210    32.2450 ca         1 A1H       0.459900
     33 N27         33.9350    15.3520    31.3160 nv         1 A1H      -1.068900
     34 N28         35.3640    16.4880    32.6890 nb         1 A1H      -0.310000
     35 C29         36.3480    16.4900    33.5840 ca         1 A1H       0.200900
     36 N30         36.9710    15.4580    34.1180 nb         1 A1H      -0.230000
     37 O35         30.8700    11.5210    30.9370 oh         1 A1H      -0.522100
     38 N37         34.0860    10.0820    30.3370 nb         1 A1H      -0.635000
     39 H1          39.5560    14.4860    36.0560 hc         1 A1H       0.049700
     40 H2          41.3090    13.4060    37.1370 hc         1 A1H       0.049200
     41 H3          42.4970    13.8420    35.9160 hc         1 A1H       0.049200
     42 H4          42.9010    15.5010    37.6630 hc         1 A1H       0.044200
     43 H5          41.1730    15.7230    37.9150 hc         1 A1H       0.044200
     44 H6          42.7710    16.5080    35.4400 hc         1 A1H       0.044200
     45 H7          41.7450    17.5650    36.4000 hc         1 A1H       0.044200
     46 H8          40.8130    16.3010    34.1240 hc         1 A1H       0.049200
     47 H9          39.7540    16.6210    35.4740 hc         1 A1H       0.049200
     48 H10         45.0220    13.5900    31.8370 ha         1 A1H       0.119000
     49 H11         46.8720    12.1520    32.6110 ha         1 A1H       0.112500
     50 H12         46.4930     9.7330    32.9730 ha         1 A1H       0.111000
     51 H13         44.2570     8.7630    32.5440 ha         1 A1H       0.112500
     52 H14         42.4170    10.1960    31.7580 ha         1 A1H       0.119000
     53 H15         38.8160    11.2550    36.1540 hc         1 A1H       0.055033
     54 H16         37.0540    11.3040    36.0680 hc         1 A1H       0.055033
     55 H17         37.9860    10.5770    34.7530 hc         1 A1H       0.055033
     56 H18         32.5940    12.9700    32.4100 ha         1 A1H       0.127000
     57 H19         32.1670     9.6780    29.6980 h4         1 A1H       0.037100
     58 H20         35.9320    10.6330    31.0600 h4         1 A1H       0.035100
     59 H21         38.5460    11.4410    32.5370 h4         1 A1H       0.054800
     60 H22         42.8130    13.8750    31.0620 h1         1 A1H       0.074200
     61 H23         42.0400    12.4680    30.3420 h1         1 A1H       0.074200
     62 H24         38.0720    13.5040    35.6280 h1         1 A1H       0.091700
     63 H25         33.6470    16.2390    30.9370 hn         1 A1H       0.503500
     64 H26         33.6200    14.5230    30.8430 hn         1 A1H       0.503500
     65 H27         36.6840    17.4710    33.9040 h5         1 A1H       0.049100
     66 H28         30.5690    12.2590    31.4810 ho         1 A1H       0.469000
@<TRIPOS>BOND
     1     1     2 1   
     2     1    22 2   
     3     1    26 1   
     4     2     3 1   
     5     2    23 2   
     6     3     4 1   
     7     3     7 1   
     8     3    39 1   
     9     4     5 1   
    10     4    40 1   
    11     4    41 1   
    12     5     6 1   
    13     5    42 1   
    14     5    43 1   
    15     6     7 1   
    16     6    44 1   
    17     6    45 1   
    18     7    46 1   
    19     7    47 1   
    20     8     9 ar  
    21     8    28 ar  
    22     8    48 1   
    23     9    10 ar  
    24     9    49 1   
    25    10    11 ar  
    26    10    50 1   
    27    11    12 ar  
    28    11    51 1   
    29    12    28 ar  
    30    12    52 1   
    31    13    29 1   
    32    13    53 1   
    33    13    54 1   
    34    13    55 1   
    35    14    16 1   
    36    14    29 1   
    37    14    30 1   
    38    15    17 1   
    39    15    30 2   
    40    15    31 1   
    41    16    31 ar  
    42    16    36 ar  
    43    17    18 ar  
    44    17    21 ar  
    45    18    19 ar  
    46    18    56 1   
    47    19    20 ar  
    48    19    37 1   
    49    20    38 ar  
    50    20    57 1   
    51    21    38 ar  
    52    21    58 1   
    53    23    24 1   
    54    23    29 1   
    55    24    25 2   
    56    24    59 1   
    57    25    26 1   
    58    26    27 1   
    59    27    28 1   
    60    27    60 1   
    61    27    61 1   
    62    29    62 1   
    63    31    32 ar  
    64    32    33 1   
    65    32    34 ar  
    66    33    63 1   
    67    33    64 1   
    68    34    35 ar  
    69    35    36 ar  
    70    35    65 1   
    71    37    66 1   
@<TRIPOS>SUBSTRUCTURE
     1 A1H         1 TEMP              0 ****  ****    0 ROOT
