@<TRIPOS>MOLECULE
A1H
   24    25     1     0     0
SMALL
abcg2


@<TRIPOS>ATOM
      1 C1          -2.3590    10.0720    25.4500 c3         1 A1H      -0.378100
      2 C6          -0.4530     8.0960    23.5850 ca         1 A1H       0.209000
      3 C7          -1.5520     7.8100    22.7950 ca         1 A1H      -0.116000
      4 C8          -1.4510     7.7760    21.3960 ca         1 A1H      -0.138000
      5 C10          0.8750     8.3300    21.5350 ca         1 A1H      -0.095800
      6 C11          2.2440     8.6080    21.2340 cc         1 A1H      -0.245200
      7 C12          2.8810     8.7750    22.4290 cd         1 A1H      -0.149100
      8 C14          0.7600     8.3540    22.9440 ca         1 A1H      -0.021200
      9 S2          -0.7180     9.5010    25.8330 s6         1 A1H       1.179100
     10 O3           0.2360    10.4530    25.2890 o          1 A1H      -0.531000
     11 O4          -0.6660     9.1530    27.2420 o          1 A1H      -0.531000
     12 N5          -0.5110     8.0740    25.0030 nu         1 A1H      -0.875100
     13 C9          -0.2540     8.0370    20.7610 ca         1 A1H      -0.045000
     14 N13          1.9920     8.6190    23.4540 na         1 A1H      -0.193700
     15 H18         -2.5200    11.0080    25.9830 h1         1 A1H       0.103033
     16 H16         -2.4480    10.2360    24.3790 h1         1 A1H       0.103033
     17 H17         -3.0800     9.3270    25.7790 h1         1 A1H       0.103033
     18 H20         -2.5020     7.5960    23.2700 ha         1 A1H       0.106000
     19 H21         -2.3310     7.5400    20.8130 ha         1 A1H       0.116000
     20 H23          2.6950     8.6690    20.2570 ha         1 A1H       0.208000
     21 H24          3.9170     8.9950    22.6340 h4         1 A1H       0.217000
     22 H19         -1.0820     7.3290    25.3920 hn         1 A1H       0.488000
     23 H22         -0.1860     8.0070    19.6810 ha         1 A1H       0.119000
     24 H15          2.2100     8.7200    24.4310 hn         1 A1H       0.366000
@<TRIPOS>BOND
     1     1     9 1   
     2     1    15 1   
     3     1    16 1   
     4     1    17 1   
     5     2     3 ar  
     6     2     8 ar  
     7     2    12 1   
     8     3     4 ar  
     9     3    18 1   
    10     4    13 ar  
    11     4    19 1   
    12     5     6 1   
    13     5     8 ar  
    14     5    13 ar  
    15     6     7 2   
    16     6    20 1   
    17     7    14 1   
    18     7    21 1   
    19     8    14 1   
    20     9    10 2   
    21     9    11 2   
    22     9    12 1   
    23    12    22 1   
    24    13    23 1   
    25    14    24 1   
@<TRIPOS>SUBSTRUCTURE
     1 A1H         1 TEMP              0 ****  ****    0 ROOT
