@<TRIPOS>MOLECULE
A1H
   24    25     1     0     0
SMALL
No Charge or Current Charge


@<TRIPOS>ATOM
      1 C1          -1.4850    10.5280    25.2560 c3         1 A1H      -0.378100
      2 C6          -0.6290     7.8710    23.5900 ca         1 A1H       0.209000
      3 C7          -1.5960     7.2530    22.7660 ca         1 A1H      -0.116000
      4 C8          -1.4340     7.1970    21.3610 ca         1 A1H      -0.138000
      5 C10          0.6640     8.3460    21.5900 ca         1 A1H      -0.095800
      6 C11          1.9140     8.9570    21.2620 cc         1 A1H      -0.245200
      7 C12          2.4940     9.3650    22.4550 cd         1 A1H      -0.149100
      8 C14          0.5140     8.4090    22.9510 ca         1 A1H      -0.021200
      9 S2          -0.6750     9.1520    26.0410 s6         1 A1H       1.179100
     10 O3           0.7600     9.4200    26.1510 o          1 A1H      -0.531000
     11 O4          -1.4500     8.7580    27.2180 o          1 A1H      -0.531000
     12 N5          -0.8520     7.8890    24.9750 nu         1 A1H      -0.875100
     13 C9          -0.2900     7.7520    20.7560 ca         1 A1H      -0.045000
     14 N13          1.6260     9.0190    23.5190 na         1 A1H      -0.193700
     15 H18         -1.4130    11.3820    25.9370 h1         1 A1H       0.103033
     16 H16         -0.9630    10.7270    24.3150 h1         1 A1H       0.103033
     17 H17         -2.5280    10.2450    25.0820 h1         1 A1H       0.103033
     18 H20         -2.4860     6.8170    23.2120 ha         1 A1H       0.106000
     19 H21         -2.1940     6.7210    20.7460 ha         1 A1H       0.116000
     20 H23          2.3470     9.0840    20.2700 ha         1 A1H       0.208000
     21 H24          3.4450     9.8660    22.6270 h4         1 A1H       0.217000
     22 H19         -1.6890     7.4240    25.2990 hn         1 A1H       0.488000
     23 H22         -0.1480     7.7120    19.6780 ha         1 A1H       0.119000
     24 H15          1.7660     9.1890    24.5130 hn         1 A1H       0.366000
@<TRIPOS>BOND
     1     1     9 1   
     2     1    15 1   
     3     1    16 1   
     4     1    17 1   
     5     2     3 ar  
     6     2     8 ar  
     7     2    12 1   
     8     3     4 ar  
     9     3    18 1   
    10     4    13 ar  
    11     4    19 1   
    12     5     6 1   
    13     5     8 ar  
    14     5    13 ar  
    15     6     7 2   
    16     6    20 1   
    17     7    14 1   
    18     7    21 1   
    19     8    14 1   
    20     9    10 2   
    21     9    11 2   
    22     9    12 1   
    23    12    22 1   
    24    13    23 1   
    25    14    24 1   
@<TRIPOS>SUBSTRUCTURE
     1 A1H         1 TEMP              0 ****  ****    0 ROOT
