@<TRIPOS>MOLECULE
A1H
   17    18     1     0     0
SMALL
abcg2


@<TRIPOS>ATOM
      1 C2          -7.2260     8.7820    12.3540 ca         1 A1H       0.561900
      2 C3          -6.3740     8.8650    11.2210 ca         1 A1H      -0.198000
      3 C5          -6.8270     6.5900    10.8040 ca         1 A1H      -0.145200
      4 C7          -7.6680     4.5480    11.0270 cc         1 A1H      -0.154100
      5 C8          -8.1840     5.2740    12.0690 cd         1 A1H      -0.361800
      6 N1          -7.4640     9.9150    13.1010 nv         1 A1H      -1.042900
      7 C4          -6.1660     7.7570    10.4340 ca         1 A1H      -0.050000
      8 N6          -6.8560     5.3330    10.2680 na         1 A1H      -0.214700
      9 C9          -7.6550     6.5910    11.9430 ca         1 A1H       0.384800
     10 N10         -7.8500     7.6750    12.7100 nb         1 A1H      -0.702000
     11 H13         -5.8900     9.8030    10.9830 ha         1 A1H       0.119000
     12 H16         -7.8250     3.5140    10.7670 h4         1 A1H       0.212000
     13 H17         -8.8570     4.9090    12.8280 ha         1 A1H       0.215000
     14 H11         -7.8080     9.7410    14.0320 hn         1 A1H       0.455500
     15 H12         -6.7430    10.6180    13.0820 hn         1 A1H       0.455500
     16 H14         -5.5150     7.8020     9.5690 ha         1 A1H       0.115000
     17 H15         -6.3570     5.0290     9.4490 hn         1 A1H       0.349000
@<TRIPOS>BOND
     1     1     2 ar  
     2     1     6 1   
     3     1    10 ar  
     4     2     7 ar  
     5     2    11 1   
     6     3     7 ar  
     7     3     8 1   
     8     3     9 ar  
     9     4     5 2   
    10     4     8 1   
    11     4    12 1   
    12     5     9 1   
    13     5    13 1   
    14     6    14 1   
    15     6    15 1   
    16     7    16 1   
    17     8    17 1   
    18     9    10 ar  
@<TRIPOS>SUBSTRUCTURE
     1 A1H         1 TEMP              0 ****  ****    0 ROOT
