@<TRIPOS>MOLECULE
A1H
   46    50     1     0     0
SMALL
abcg2


@<TRIPOS>ATOM
      1 C2          -7.4710    10.9900    24.6930 c6         1 A1H       0.160500
      2 C3          -7.4640     9.4720    24.4980 c6         1 A1H      -0.122400
      3 C5          -7.4100     9.1600    27.0230 c5         1 A1H      -0.077400
      4 C6          -6.5980    10.3970    27.4560 c5         1 A1H      -0.077400
      5 C7          -5.5740    10.5920    26.3300 c5         1 A1H       0.206000
      6 C8          -6.1090    11.4820    25.2040 c6         1 A1H      -0.122400
      7 C10         -4.4250     8.8640    24.9510 ca         1 A1H       0.282000
      8 C11         -3.1990     9.5850    24.9210 ca         1 A1H       0.270900
      9 C13         -2.2570     8.2010    23.3980 ca         1 A1H       0.307800
     10 C14         -1.3150     7.6200    22.4790 cc         1 A1H      -0.202000
     11 C15         -1.9610     6.5490    21.9190 cd         1 A1H      -0.127100
     12 C19          0.0620     8.0650    22.2700 ca         1 A1H       0.019200
     13 C21          2.1500     8.8160    23.2570 ca         1 A1H      -0.104000
     14 C22          2.7250     8.9400    22.0030 ca         1 A1H      -0.100000
     15 C23          1.9690     8.6380    20.8830 ca         1 A1H       0.115000
     16 C25          0.6480     8.2120    21.0070 ca         1 A1H       0.120000
     17 N1          -7.9220    11.6360    23.4690 n8         1 A1H      -0.989200
     18 C4          -6.7960     8.7570    25.6760 c5         1 A1H       0.206000
     19 N9          -5.4220     9.2250    25.8320 nh         1 A1H      -0.778400
     20 N12         -2.1550     9.2730    24.1820 nb         1 A1H      -0.600000
     21 N16         -3.2210     6.4390    22.4310 na         1 A1H      -0.219700
     22 C17         -3.4350     7.4350    23.3360 ca         1 A1H      -0.054200
     23 C18         -4.5420     7.7590    24.1060 ca         1 A1H      -0.177000
     24 C20          0.8430     8.3840    23.3850 ca         1 A1H      -0.079000
     25 CL24         2.6890     8.8080    19.3240 cl         1 A1H      -0.184000
     26 CL26        -0.2630     7.9010    19.5770 cl         1 A1H      -0.184000
     27 H30         -8.2220    11.2260    25.4550 h1         1 A1H       0.059700
     28 H35         -8.4880     9.1110    24.3720 hc         1 A1H       0.053700
     29 H34         -6.9290     9.2230    23.5740 hc         1 A1H       0.053700
     30 H37         -8.4770     9.3620    26.9320 hc         1 A1H       0.052450
     31 H36         -7.2940     8.3500    27.7430 hc         1 A1H       0.052450
     32 H38         -6.0860    10.2140    28.4010 hc         1 A1H       0.052450
     33 H39         -7.2170    11.2840    27.5910 hc         1 A1H       0.052450
     34 H32         -4.6350    10.9840    26.7200 h1         1 A1H       0.072200
     35 H41         -5.3920    11.4860    24.3750 hc         1 A1H       0.053700
     36 H40         -6.1960    12.5170    25.5500 hc         1 A1H       0.053700
     37 H42         -3.0810    10.4600    25.5490 h4         1 A1H       0.017100
     38 H43         -1.6060     5.8300    21.2000 h4         1 A1H       0.223000
     39 H46          2.7320     9.0500    24.1380 ha         1 A1H       0.121000
     40 H47          3.7490     9.2670    21.8900 ha         1 A1H       0.129000
     41 H29         -7.9670    12.6390    23.6140 hn         1 A1H       0.393500
     42 H27         -7.2250    11.4980    22.7450 hn         1 A1H       0.393500
     43 H31         -6.8310     7.6750    25.5380 h1         1 A1H       0.072200
     44 H33         -3.8810     5.7220    22.1790 hn         1 A1H       0.353000
     45 H44         -5.4470     7.1690    24.0510 ha         1 A1H       0.120000
     46 H45          0.4110     8.2740    24.3700 ha         1 A1H       0.134000
@<TRIPOS>BOND
     1     1     2 1   
     2     1     6 1   
     3     1    17 1   
     4     1    27 1   
     5     2    18 1   
     6     2    28 1   
     7     2    29 1   
     8     3     4 1   
     9     3    18 1   
    10     3    30 1   
    11     3    31 1   
    12     4     5 1   
    13     4    32 1   
    14     4    33 1   
    15     5     6 1   
    16     5    19 1   
    17     5    34 1   
    18     6    35 1   
    19     6    36 1   
    20     7     8 ar  
    21     7    19 1   
    22     7    23 ar  
    23     8    20 ar  
    24     8    37 1   
    25     9    10 1   
    26     9    20 ar  
    27     9    22 ar  
    28    10    11 2   
    29    10    12 1   
    30    11    21 1   
    31    11    38 1   
    32    12    16 ar  
    33    12    24 ar  
    34    13    14 ar  
    35    13    24 ar  
    36    13    39 1   
    37    14    15 ar  
    38    14    40 1   
    39    15    16 ar  
    40    15    25 1   
    41    16    26 1   
    42    17    41 1   
    43    17    42 1   
    44    18    19 1   
    45    18    43 1   
    46    21    22 1   
    47    21    44 1   
    48    22    23 ar  
    49    23    45 1   
    50    24    46 1   
@<TRIPOS>SUBSTRUCTURE
     1 A1H         1 TEMP              0 ****  ****    0 ROOT
