@<TRIPOS>MOLECULE
A1H
   17    18     1     0     0
SMALL
No Charge or Current Charge


@<TRIPOS>ATOM
      1 C2          -7.2030     8.8100    12.3240 ca         1 A1H       0.561900
      2 C3          -6.3510     8.9020    11.1990 ca         1 A1H      -0.198000
      3 C5          -6.8300     6.6070    10.8150 ca         1 A1H      -0.145200
      4 C7          -7.6930     4.4930    11.0430 cc         1 A1H      -0.154100
      5 C8          -8.1590     5.3220    12.0590 cd         1 A1H      -0.361800
      6 N1          -7.4500     9.8420    13.1430 nv         1 A1H      -1.042900
      7 C4          -6.1470     7.7560    10.3990 ca         1 A1H      -0.050000
      8 N6          -6.8540     5.3290    10.2680 na         1 A1H      -0.214700
      9 C9          -7.6270     6.6460    11.9270 ca         1 A1H       0.384800
     10 N10         -7.8490     7.7080    12.7150 nb         1 A1H      -0.702000
     11 H13         -5.8630     9.8400    10.9540 ha         1 A1H       0.119000
     12 H16         -7.8740     3.4440    10.8160 h4         1 A1H       0.212000
     13 H17         -8.8360     5.0150    12.8500 ha         1 A1H       0.215000
     14 H11         -7.8830     9.6050    14.0280 hn         1 A1H       0.455500
     15 H12         -6.7990    10.6200    13.1420 hn         1 A1H       0.455500
     16 H14         -5.5040     7.7670     9.5220 ha         1 A1H       0.115000
     17 H15         -6.3440     5.0400     9.4370 hn         1 A1H       0.349000
@<TRIPOS>BOND
     1     1     2 ar  
     2     1     6 1   
     3     1    10 ar  
     4     2     7 ar  
     5     2    11 1   
     6     3     7 ar  
     7     3     8 1   
     8     3     9 ar  
     9     4     5 2   
    10     4     8 1   
    11     4    12 1   
    12     5     9 1   
    13     5    13 1   
    14     6    14 1   
    15     6    15 1   
    16     7    16 1   
    17     8    17 1   
    18     9    10 ar  
@<TRIPOS>SUBSTRUCTURE
     1 A1H         1 TEMP              0 ****  ****    0 ROOT
