@<TRIPOS>MOLECULE
A1H
   61    62     1     0     0
SMALL
abcg2


@<TRIPOS>ATOM
      1 C10        212.2880   183.8270   173.2520 ca         1 A1H       0.159100
      2 C13        210.8410   183.9130   175.9910 c          1 A1H       0.579100
      3 C15        211.0400   185.8130   177.5890 c3         1 A1H      -0.041300
      4 C21        212.5360   186.2020   177.4170 c          1 A1H       0.700000
      5 C26        214.6200   183.3430   173.5700 ca         1 A1H      -0.071000
      6 C02        218.5470   183.9860   169.5140 c5         1 A1H       0.136300
      7 C03        218.1350   185.0530   170.5430 c5         1 A1H       0.154800
      8 C05        216.6920   183.2050   170.7710 c5         1 A1H       0.151500
      9 C06        216.0300   182.2640   171.7710 c3         1 A1H      -0.015100
     10 C07        214.7280   182.8040   172.2950 ca         1 A1H      -0.131300
     11 C08        213.5790   182.7890   171.5040 ca         1 A1H      -0.071000
     12 C09        212.3770   183.2920   171.9670 ca         1 A1H      -0.159000
     13 C12        210.9240   184.9280   174.8520 c3         1 A1H       0.070600
     14 C16        210.5810   186.0060   179.0370 c3         1 A1H      -0.064400
     15 C18        209.8880   187.6290   180.8670 c3         1 A1H      -0.075400
     16 C19        210.5460   186.8860   182.0210 c3         1 A1H       0.143800
     17 C25        213.4210   183.8520   174.0590 ca         1 A1H      -0.159000
     18 C27        217.9730   182.6960   170.1060 c5         1 A1H       0.095300
     19 C30        220.1160   180.7260   172.3840 c3         1 A1H      -0.157100
     20 N04        217.0570   184.4880   171.3610 n7         1 A1H      -0.819400
     21 N14        210.7710   184.4320   177.2250 ns         1 A1H      -0.466900
     22 N20        209.8620   187.1690   183.2750 n8         1 A1H      -1.004200
     23 O11        211.0720   184.3030   173.6080 os         1 A1H      -0.335100
     24 O24        210.7830   182.7150   175.7610 o          1 A1H      -0.638100
     25 O28        218.9100   182.2560   171.0960 os         1 A1H      -0.458100
     26 O31        218.5010   180.0850   170.7220 o          1 A1H      -0.488000
     27 H1         210.4310   186.4710   176.9600 h1         1 A1H       0.039700
     28 H2         211.6300   187.8050   179.6180 hc         1 A1H       0.056700
     29 H3         210.1210   188.0860   178.7850 hc         1 A1H       0.056700
     30 H4         215.4920   183.3640   174.2140 ha         1 A1H       0.099500
     31 H5         219.6360   183.9240   169.4020 h1         1 A1H       0.045700
     32 H6         218.9800   185.3390   171.1700 h1         1 A1H       0.057700
     33 H7         217.8100   185.9530   170.0150 h1         1 A1H       0.057700
     34 H8         215.9800   183.3800   169.9550 h1         1 A1H       0.084700
     35 H9         215.8590   181.3040   171.2790 hc         1 A1H       0.045700
     36 H10        216.7080   182.0750   172.6080 hc         1 A1H       0.045700
     37 H11        213.6240   182.3720   170.5040 ha         1 A1H       0.099500
     38 H12        211.4960   183.2700   171.3370 ha         1 A1H       0.139500
     39 H13        211.7080   185.6720   175.0220 h1         1 A1H       0.081200
     40 H14        209.9800   185.4770   174.8090 h1         1 A1H       0.081200
     41 H15        209.5570   185.6250   179.1210 hc         1 A1H       0.025200
     42 H16        211.1980   185.3730   179.6850 hc         1 A1H       0.025200
     43 H17        209.8630   188.6970   181.1090 hc         1 A1H       0.031700
     44 H18        208.8450   187.3080   180.7810 hc         1 A1H       0.031700
     45 H19        210.4920   185.8090   181.8480 h1         1 A1H       0.033200
     46 H20        211.6180   187.1400   182.0380 h1         1 A1H       0.033200
     47 H21        213.4030   184.2520   175.0650 ha         1 A1H       0.139500
     48 H22        217.8050   181.9180   169.3600 h1         1 A1H       0.078700
     49 H23        220.2750   179.6630   172.5380 hc         1 A1H       0.069033
     50 H24        221.0620   181.1950   172.1130 hc         1 A1H       0.069033
     51 H25        219.7890   181.1760   173.3220 hc         1 A1H       0.069033
     52 H26        217.3980   184.3330   172.3020 hn         1 A1H       0.414000
     53 H28        210.7640   183.7540   177.9730 hn         1 A1H       0.300500
     54 H29        210.2960   186.6440   184.0240 hn         1 A1H       0.381500
     55 H30        209.9950   188.1440   183.5150 hn         1 A1H       0.381500
     56 H32        218.1990   183.6380   167.6350 ho         1 A1H       0.437000
     57 C29        219.0890   180.9540   171.3140 c          1 A1H       0.600100
     58 O22        212.7540   187.4110   177.2180 o          1 A1H      -0.716000
     59 C17        210.6020   187.4480   179.5310 c3         1 A1H      -0.068400
     60 O01        217.9250   184.2920   168.2870 oh         1 A1H      -0.644000
     61 O23        213.3710   185.2840   177.5140 o          1 A1H      -0.716000
@<TRIPOS>BOND
     1     1    12 ar  
     2     1    17 ar  
     3     1    23 1   
     4     2    13 1   
     5     2    21 1   
     6     2    24 2   
     7     3     4 1   
     8     3    14 1   
     9     3    21 1   
    10     3    27 1   
    11     4    58 1   
    12     4    61 1   
    13     5    10 ar  
    14     5    17 ar  
    15     5    30 1   
    16     6     7 1   
    17     6    18 1   
    18     6    31 1   
    19     6    60 1   
    20     7    20 1   
    21     7    32 1   
    22     7    33 1   
    23     8     9 1   
    24     8    18 1   
    25     8    20 1   
    26     8    34 1   
    27     9    10 1   
    28     9    35 1   
    29     9    36 1   
    30    10    11 ar  
    31    11    12 ar  
    32    11    37 1   
    33    12    38 1   
    34    13    23 1   
    35    13    39 1   
    36    13    40 1   
    37    14    41 1   
    38    14    42 1   
    39    14    59 1   
    40    15    16 1   
    41    15    43 1   
    42    15    44 1   
    43    15    59 1   
    44    16    22 1   
    45    16    45 1   
    46    16    46 1   
    47    17    47 1   
    48    18    25 1   
    49    18    48 1   
    50    19    49 1   
    51    19    50 1   
    52    19    51 1   
    53    19    57 1   
    54    20    52 1   
    55    21    53 1   
    56    22    54 1   
    57    22    55 1   
    58    25    57 1   
    59    26    57 2   
    60    28    59 1   
    61    29    59 1   
    62    56    60 1   
@<TRIPOS>SUBSTRUCTURE
     1 A1H         1 TEMP              0 ****  ****    0 ROOT
