@<TRIPOS>MOLECULE
A1H
   19    20     1     0     0
SMALL
No Charge or Current Charge


@<TRIPOS>ATOM
      1 C2           2.3010     7.5780    21.7370 ca         1 A1H       0.122000
      2 C3           1.9810     7.6660    23.0990 ca         1 A1H      -0.108500
      3 C5          -0.3820     7.2440    22.5920 ca         1 A1H      -0.109500
      4 C6          -0.0390     7.1580    21.2200 ca         1 A1H      -0.084000
      5 C7           1.2920     7.3250    20.7980 ca         1 A1H      -0.108500
      6 C8          -1.7820     7.0680    23.0250 cc         1 A1H       0.301500
      7 C10         -3.5850     6.9180    24.3440 cd         1 A1H      -0.175000
      8 Cl1          3.9650     7.7860    21.2070 cl         1 A1H      -0.207000
      9 C4           0.6510     7.5010    23.5250 ca         1 A1H      -0.084000
     10 C9          -2.2410     7.1300    24.3560 cc         1 A1H      -0.212000
     11 N11         -3.8930     6.7330    22.9940 na         1 A1H       0.003800
     12 N12         -2.7670     6.8260    22.1750 nd         1 A1H      -0.518800
     13 H14          2.7650     7.8630    23.8260 ha         1 A1H       0.128500
     14 H16         -0.8030     6.9620    20.4710 ha         1 A1H       0.125000
     15 H17          1.5400     7.2560    19.7410 ha         1 A1H       0.128500
     16 H19         -4.3200     6.8840    25.1430 h4         1 A1H       0.155000
     17 H15          0.4400     7.5750    24.5880 ha         1 A1H       0.125000
     18 H18         -1.6320     7.3150    25.2330 ha         1 A1H       0.146000
     19 H13         -4.8190     6.5480    22.6060 hn         1 A1H       0.373000
@<TRIPOS>BOND
     1     1     2 ar  
     2     1     5 ar  
     3     1     8 1   
     4     2     9 ar  
     5     2    13 1   
     6     3     4 ar  
     7     3     6 1   
     8     3     9 ar  
     9     4     5 ar  
    10     4    14 1   
    11     5    15 1   
    12     6    10 1   
    13     6    12 2   
    14     7    10 2   
    15     7    11 1   
    16     7    16 1   
    17     9    17 1   
    18    10    18 1   
    19    11    12 1   
    20    11    19 1   
@<TRIPOS>SUBSTRUCTURE
     1 A1H         1 TEMP              0 ****  ****    0 ROOT
