@<TRIPOS>MOLECULE
A1H
   45    48     1     0     0
SMALL
No Charge or Current Charge


@<TRIPOS>ATOM
      1 C1          -8.9750    10.2100    29.3430 c3         1 A1H      -0.123100
      2 C2          -8.4820     9.9810    27.8890 c6         1 A1H       0.170200
      3 C5          -6.6200    10.5840    26.2020 c6         1 A1H       0.201300
      4 C7          -7.4460     8.2360    26.2930 c6         1 A1H       0.201300
      5 C8          -8.0840     8.4920    27.6810 c6         1 A1H      -0.066400
      6 C10         -3.8800     9.3260    25.3990 ca         1 A1H       0.299900
      7 C12         -3.0050     8.0400    23.7280 ca         1 A1H       0.321800
      8 C13         -2.0720     7.4770    22.8000 cc         1 A1H      -0.205000
      9 C14         -2.7360     6.5060    22.0580 cd         1 A1H      -0.126100
     10 C16         -4.2020     7.4120    23.4960 ca         1 A1H      -0.070200
     11 C19          0.1700     7.6790    23.8170 ca         1 A1H      -0.079000
     12 C21          2.1470     8.1910    22.4990 ca         1 A1H      -0.101000
     13 C22          1.3570     8.2560    21.3400 ca         1 A1H       0.115000
     14 C24         -0.0360     8.0280    21.4130 ca         1 A1H       0.119000
     15 N3          -9.6100    10.3350    27.0040 n8         1 A1H      -0.996200
     16 C4          -7.2490    10.8800    27.5870 c6         1 A1H      -0.066400
     17 N6          -6.2810     9.1390    26.0600 nh         1 A1H      -0.776400
     18 C9          -5.1810     8.7390    25.2450 ca         1 A1H       0.252000
     19 N11         -2.7880     8.9900    24.6550 nb         1 A1H      -0.611000
     20 N15         -4.0920     6.4720    22.4770 na         1 A1H      -0.214700
     21 C17         -5.3360     7.7410    24.2510 ca         1 A1H      -0.158000
     22 C18         -0.6360     7.7300    22.6630 ca         1 A1H       0.020200
     23 C20          1.5540     7.9050    23.7380 ca         1 A1H      -0.104000
     24 Cl25        -1.0180     8.1640    19.9440 cl         1 A1H      -0.187000
     25 H31         -8.1900     9.9650    30.0700 hc         1 A1H       0.038700
     26 H30         -9.2600    11.2550    29.5130 hc         1 A1H       0.038700
     27 H32         -9.8440     9.5830    29.5790 hc         1 A1H       0.038700
     28 H35         -5.7230    11.2090    26.0860 h1         1 A1H       0.042700
     29 H36         -7.3210    10.8800    25.4080 h1         1 A1H       0.042700
     30 H38         -8.2000     8.3800    25.5050 h1         1 A1H       0.042700
     31 H37         -7.1280     7.1830    26.2550 h1         1 A1H       0.042700
     32 H39         -8.9600     7.8410    27.8060 hc         1 A1H       0.047450
     33 H40         -7.3680     8.1920    28.4570 hc         1 A1H       0.047450
     34 H41         -3.7110    10.0890    26.1570 h4         1 A1H       0.022100
     35 H42         -2.3560     5.8430    21.2830 h4         1 A1H       0.223000
     36 H44         -0.2810     7.4540    24.7810 ha         1 A1H       0.136000
     37 H46          3.2180     8.3670    22.4360 ha         1 A1H       0.129000
     38 H28        -10.4110    10.5940    27.5880 hn         1 A1H       0.393500
     39 H27         -9.3820    11.2030    26.5100 hn         1 A1H       0.393500
     40 H33         -6.4830    10.7210    28.3580 hc         1 A1H       0.047450
     41 H34         -7.5230    11.9420    27.6460 hc         1 A1H       0.047450
     42 H29         -4.8270     5.8680    22.1200 hn         1 A1H       0.353000
     43 H43         -6.2890     7.2560    24.0640 ha         1 A1H       0.121000
     44 H45          2.1650     7.8580    24.6370 ha         1 A1H       0.121000
     45 Cl23         2.1400     8.6350    19.8040 cl         1 A1H      -0.184000
@<TRIPOS>BOND
     1     1     2 1   
     2     1    25 1   
     3     1    26 1   
     4     1    27 1   
     5     2     5 1   
     6     2    15 1   
     7     2    16 1   
     8     3    16 1   
     9     3    17 1   
    10     3    28 1   
    11     3    29 1   
    12     4     5 1   
    13     4    17 1   
    14     4    30 1   
    15     4    31 1   
    16     5    32 1   
    17     5    33 1   
    18     6    18 ar  
    19     6    19 ar  
    20     6    34 1   
    21     7     8 1   
    22     7    10 ar  
    23     7    19 ar  
    24     8     9 2   
    25     8    22 1   
    26     9    20 1   
    27     9    35 1   
    28    10    20 1   
    29    10    21 ar  
    30    11    22 ar  
    31    11    23 ar  
    32    11    36 1   
    33    12    13 ar  
    34    12    23 ar  
    35    12    37 1   
    36    13    14 ar  
    37    13    45 1   
    38    14    22 ar  
    39    14    24 1   
    40    15    38 1   
    41    15    39 1   
    42    16    40 1   
    43    16    41 1   
    44    17    18 1   
    45    18    21 ar  
    46    20    42 1   
    47    21    43 1   
    48    23    44 1   
@<TRIPOS>SUBSTRUCTURE
     1 A1H         1 TEMP              0 ****  ****    0 ROOT
