@<TRIPOS>MOLECULE
A1H
   54    58     1     0     0
SMALL
abcg2


@<TRIPOS>ATOM
      1 C10         88.0370   -19.7660    34.8990 c          1 A1H       0.716600
      2 C13         87.4160   -17.3120    34.8520 ca         1 A1H      -0.074000
      3 C14         87.1170   -16.1390    34.1730 ca         1 A1H      -0.042200
      4 C16         85.8580   -14.0390    34.6430 cc         1 A1H      -0.225000
      5 C17         85.9960   -13.0810    35.6020 cd         1 A1H       0.205900
      6 C19         87.5220   -14.5120    35.9870 cc         1 A1H       0.401400
      7 C3          86.5360   -14.8170    27.9350 c5         1 A1H       0.142300
      8 C20         87.0860   -16.1140    32.7880 ca         1 A1H      -0.125000
      9 C1          84.6030   -13.8390    28.8560 c5         1 A1H       0.278300
     10 C4          83.0970   -12.3900    30.2440 ca         1 A1H       0.127500
     11 C2          82.1270   -10.4400    29.9650 ca         1 A1H       0.174900
     12 C6          81.7910   -11.4660    31.9970 ca         1 A1H       0.448900
     13 C15         85.3270   -15.7560    27.7710 c5         1 A1H       0.135300
     14 C5          82.5950   -12.5210    31.5290 ca         1 A1H      -0.096600
     15 C8          83.7390   -14.2620    31.1810 cc         1 A1H       0.416700
     16 C18         86.1090   -13.9640    29.1180 c5         1 A1H       0.134300
     17 C21         85.4680   -17.1650    28.3340 c3         1 A1H       0.032600
     18 C7          87.3500   -17.2770    32.0700 ca         1 A1H      -0.116300
     19 C12         87.6520   -18.4470    32.7570 ca         1 A1H      -0.057000
     20 C9          87.7000   -18.4760    34.1480 ca         1 A1H      -0.124600
     21 N15         86.8440   -14.9580    34.9000 na         1 A1H      -0.055300
     22 N18         87.0390   -13.3850    36.4340 nd         1 A1H      -0.697000
     23 N9          83.8350   -13.5210    30.0320 na         1 A1H      -0.290300
     24 N3          82.8930   -11.3670    29.4170 nb         1 A1H      -0.218000
     25 N1          81.5790   -10.4290    31.1770 nb         1 A1H      -0.310000
     26 N7          83.0050   -13.7010    32.0960 nd         1 A1H      -0.558100
     27 O3          86.6920   -13.9690    26.8260 oh         1 A1H      -0.689000
     28 O11         88.0240   -19.6970    36.1420 o          1 A1H      -0.706500
     29 O12         88.2930   -20.7620    34.1980 o          1 A1H      -0.706500
     30 O4          84.2140   -15.0940    28.3710 os         1 A1H      -0.440000
     31 O2          86.7850   -12.7510    29.1890 oh         1 A1H      -0.678000
     32 S1          85.5010   -17.3300    30.1390 ss         1 A1H      -0.426000
     33 H45         87.4180   -17.3310    35.9340 ha         1 A1H       0.147000
     34 H46         85.1480   -14.1590    33.8400 h4         1 A1H       0.163000
     35 H47         85.3960   -12.1950    35.7390 h4         1 A1H       0.023100
     36 H48         88.3700   -15.0460    36.3890 h5         1 A1H       0.061100
     37 H3          87.4550   -15.3800    28.1370 h1         1 A1H       0.060700
     38 H49         86.8740   -15.1890    32.2650 ha         1 A1H       0.096000
     39 H1          84.4070   -13.0370    28.1340 h2         1 A1H       0.112700
     40 H4          85.1280   -15.8820    26.7000 h1         1 A1H       0.057700
     41 H8          84.2290   -15.2210    31.2710 h5         1 A1H       0.097800
     42 H2          86.2440   -14.5630    30.0280 h1         1 A1H       0.064700
     43 H5'2        84.6060   -17.7540    28.0160 h1         1 A1H       0.076700
     44 H5'1        86.3480   -17.6480    27.9040 h1         1 A1H       0.076700
     45 H44         87.8580   -19.3520    32.2010 ha         1 A1H       0.137000
     46 HO3         86.9210   -14.5060    26.0610 ho         1 A1H       0.499000
     47 HO2         86.6390   -12.3720    30.0610 ho         1 A1H       0.516000
     48 N6          81.2350   -11.4650    33.2090 nv         1 A1H      -1.065900
     49 C11         87.2730   -17.2550    30.5720 c3         1 A1H       0.128900
     50 H6          81.9140    -9.5720    29.3500 h5         1 A1H       0.040100
     51 H42         87.7910   -18.1100    30.1370 h1         1 A1H       0.056700
     52 HN61        80.7090   -10.6680    33.5250 hn         1 A1H       0.506000
     53 HN62        81.4210   -12.2040    33.8650 hn         1 A1H       0.506000
     54 H43         87.7240   -16.3440    30.1790 h1         1 A1H       0.056700
@<TRIPOS>BOND
     1     1    20 1   
     2     1    28 1   
     3     1    29 1   
     4     2     3 ar  
     5     2    20 ar  
     6     2    33 1   
     7     3     8 ar  
     8     3    21 1   
     9     4     5 2   
    10     4    21 1   
    11     4    34 1   
    12     5    22 1   
    13     5    35 1   
    14     6    21 1   
    15     6    22 2   
    16     6    36 1   
    17     7    13 1   
    18     7    16 1   
    19     7    27 1   
    20     7    37 1   
    21     8    18 ar  
    22     8    38 1   
    23     9    16 1   
    24     9    23 1   
    25     9    30 1   
    26     9    39 1   
    27    10    14 ar  
    28    10    23 1   
    29    10    24 ar  
    30    11    24 ar  
    31    11    25 ar  
    32    11    50 1   
    33    12    14 ar  
    34    12    25 ar  
    35    12    48 1   
    36    13    17 1   
    37    13    30 1   
    38    13    40 1   
    39    14    26 1   
    40    15    23 1   
    41    15    26 2   
    42    15    41 1   
    43    16    31 1   
    44    16    42 1   
    45    17    32 1   
    46    17    43 1   
    47    17    44 1   
    48    18    19 ar  
    49    18    49 1   
    50    19    20 ar  
    51    19    45 1   
    52    27    46 1   
    53    31    47 1   
    54    32    49 1   
    55    48    52 1   
    56    48    53 1   
    57    49    51 1   
    58    49    54 1   
@<TRIPOS>SUBSTRUCTURE
     1 A1H         1 TEMP              0 ****  ****    0 ROOT
