@<TRIPOS>MOLECULE
A1H
   58    63     1     0     0
SMALL
abcg2


@<TRIPOS>ATOM
      1 C1          -2.6870    11.1120    26.4100 c3         1 A1H      -0.143400
      2 C2          -3.0090    10.1290    25.3220 ca         1 A1H       0.336300
      3 C5          -1.3910     8.2930    22.5990 cc         1 A1H      -0.203000
      4 C6          -2.1850     7.4720    21.8370 cd         1 A1H      -0.126100
      5 C8          -3.5530     8.3530    23.3510 ca         1 A1H      -0.106200
      6 C10         -4.3330     9.6420    25.1710 ca         1 A1H      -0.122300
      7 C11         -5.4020    10.0820    26.1430 c3         1 A1H       0.221100
      8 C13         -7.6520     9.6230    26.8660 c6         1 A1H       0.128300
      9 C14         -9.0160     9.1320    26.4010 c6         1 A1H       0.147300
     10 C16         -8.6360    10.1080    24.2550 c6         1 A1H       0.147300
     11 C19          0.8200     8.4170    23.7140 ca         1 A1H      -0.073000
     12 C21          2.8490     8.8410    22.5530 ca         1 A1H      -0.059000
     13 C24          5.5640     9.4650    20.4540 c3         1 A1H       0.168900
     14 C25          6.3320     8.1940    20.3410 cc         1 A1H      -0.244300
     15 C26          7.0420     7.5090    21.3450 cc         1 A1H       0.277900
     16 C31          2.1190     8.9310    21.3380 ca         1 A1H      -0.148000
     17 N3          -2.0060     9.7500    24.5490 nb         1 A1H      -0.631000
     18 C4          -2.2660     8.8710    23.5790 ca         1 A1H       0.354800
     19 N7          -3.4700     7.5080    22.2840 na         1 A1H      -0.213700
     20 C9          -4.6080     8.7320    24.1680 ca         1 A1H      -0.067000
     21 N12         -6.7380     9.7090    25.7400 n3         1 A1H      -0.725600
     22 N15         -9.5910     9.9370    25.3370 n7         1 A1H      -0.841400
     23 C17         -7.2720    10.5980    24.7210 c6         1 A1H       0.128300
     24 C18          0.0540     8.4990    22.5040 ca         1 A1H      -0.004800
     25 C20          2.1730     8.5790    23.7650 ca         1 A1H      -0.085000
     26 N22          4.1510     9.0440    22.3440 nc         1 A1H      -0.284400
     27 N23          4.2470     9.2600    21.0410 na         1 A1H       0.149500
     28 N27          7.5890     6.4020    20.8810 nd         1 A1H      -0.520800
     29 N28          7.2440     6.3620    19.5990 na         1 A1H       0.000800
     30 C29          6.4930     7.4070    19.2220 cd         1 A1H      -0.150000
     31 C30          3.0870     9.2050    20.3790 cc         1 A1H      -0.186100
     32 C32          0.7210     8.7640    21.3330 ca         1 A1H       0.172000
     33 CL33        -0.0960     8.9330    19.8170 cl         1 A1H      -0.217000
     34 H34         -1.6220    11.3360    26.4080 hc         1 A1H       0.047700
     35 H35         -3.2330    12.0500    26.2820 hc         1 A1H       0.047700
     36 H36         -2.9530    10.7260    27.3960 hc         1 A1H       0.047700
     37 H37         -1.9150     6.8390    21.0080 h4         1 A1H       0.221000
     38 H40         -5.1930     9.6150    27.1120 h1         1 A1H       0.041200
     39 H41         -5.3220    11.1670    26.3190 h1         1 A1H       0.041200
     40 H42         -7.2440     8.9280    27.6040 h1         1 A1H       0.036450
     41 H43         -7.7700    10.5980    27.3710 h1         1 A1H       0.036450
     42 H45         -9.7050     9.1080    27.2470 h1         1 A1H       0.058200
     43 H44         -8.9160     8.1040    26.0380 h1         1 A1H       0.058200
     44 H49         -9.0460    10.8040    23.5200 h1         1 A1H       0.058200
     45 H48         -8.5120     9.1440    23.7500 h1         1 A1H       0.058200
     46 H52          0.2820     8.2060    24.6270 ha         1 A1H       0.126000
     47 H55          6.0870    10.1880    21.0790 h1         1 A1H       0.070700
     48 H54          5.4180     9.9200    19.4750 h1         1 A1H       0.070700
     49 H56          7.1680     7.7910    22.3800 h4         1 A1H       0.051100
     50 H38         -4.2290     6.9760    21.8920 hn         1 A1H       0.353000
     51 H39         -5.6080     8.3370    24.0380 ha         1 A1H       0.137000
     52 H47         -9.8310    10.8490    25.7090 hn         1 A1H       0.400000
     53 H50         -6.5860    10.6370    23.8720 h1         1 A1H       0.036450
     54 H51         -7.3650    11.6300    25.1060 h1         1 A1H       0.036450
     55 H53          2.7110     8.5030    24.7010 ha         1 A1H       0.128000
     56 H57          7.5540     5.5980    19.0200 hn         1 A1H       0.374000
     57 H58          6.1350     7.5230    18.2110 h4         1 A1H       0.154000
     58 H59          3.0260     9.3590    19.3140 h4         1 A1H       0.229000
@<TRIPOS>BOND
     1     1     2 1   
     2     1    34 1   
     3     1    35 1   
     4     1    36 1   
     5     2     6 ar  
     6     2    17 ar  
     7     3     4 2   
     8     3    18 1   
     9     3    24 1   
    10     4    19 1   
    11     4    37 1   
    12     5    18 ar  
    13     5    19 1   
    14     5    20 ar  
    15     6     7 1   
    16     6    20 ar  
    17     7    21 1   
    18     7    38 1   
    19     7    39 1   
    20     8     9 1   
    21     8    21 1   
    22     8    40 1   
    23     8    41 1   
    24     9    22 1   
    25     9    42 1   
    26     9    43 1   
    27    10    22 1   
    28    10    23 1   
    29    10    44 1   
    30    10    45 1   
    31    11    24 ar  
    32    11    25 ar  
    33    11    46 1   
    34    12    16 ar  
    35    12    25 ar  
    36    12    26 2   
    37    13    14 1   
    38    13    27 1   
    39    13    47 1   
    40    13    48 1   
    41    14    15 1   
    42    14    30 2   
    43    15    28 2   
    44    15    49 1   
    45    16    31 2   
    46    16    32 ar  
    47    17    18 ar  
    48    19    50 1   
    49    20    51 1   
    50    21    23 1   
    51    22    52 1   
    52    23    53 1   
    53    23    54 1   
    54    24    32 ar  
    55    25    55 1   
    56    26    27 1   
    57    27    31 1   
    58    28    29 1   
    59    29    30 1   
    60    29    56 1   
    61    30    57 1   
    62    31    58 1   
    63    32    33 1   
@<TRIPOS>SUBSTRUCTURE
     1 A1H         1 TEMP              0 ****  ****    0 ROOT
