@<TRIPOS>MOLECULE
A1H
   56    60     1     0     0
SMALL
abcg2


@<TRIPOS>ATOM
      1 C10         61.1850   -66.7760   -34.8120 c          1 A1H       0.715600
      2 C13         58.7000   -67.2530   -34.6480 ca         1 A1H      -0.054000
      3 C14         57.5060   -67.3710   -33.9360 cp         1 A1H      -0.081000
      4 C15         56.2470   -67.7240   -34.6190 cp         1 A1H      -0.053000
      5 C16         55.0350   -67.1260   -34.2790 ca         1 A1H      -0.078000
      6 C17         53.8820   -67.4890   -34.9520 ca         1 A1H      -0.168000
      7 C18         53.9730   -68.4420   -35.9560 ca         1 A1H       0.310900
      8 C3          56.3360   -66.8790   -27.6840 c5         1 A1H       0.141300
      9 C20         56.2150   -68.6760   -35.6390 ca         1 A1H       0.338900
     10 C21         57.5200   -67.1360   -32.5640 ca         1 A1H      -0.103000
     11 C1          54.4130   -65.9310   -28.6520 c5         1 A1H       0.280300
     12 C4          52.3590   -65.8700   -30.0860 ca         1 A1H       0.122500
     13 C2          50.2670   -66.4830   -29.8260 ca         1 A1H       0.172900
     14 C6          50.8500   -65.7070   -31.9110 ca         1 A1H       0.446900
     15 C11         56.4450   -65.3440   -27.7060 c5         1 A1H       0.136300
     16 C5          52.1490   -65.5130   -31.4090 ca         1 A1H      -0.095600
     17 C8          54.1900   -65.1250   -31.0270 cc         1 A1H       0.421700
     18 C22         55.3500   -67.1330   -28.8120 c5         1 A1H       0.131300
     19 C23         57.6690   -64.7510   -28.3910 c3         1 A1H       0.032600
     20 C12         58.6740   -66.5120   -30.4330 c3         1 A1H       0.134900
     21 C7          58.6960   -66.7830   -31.9100 ca         1 A1H      -0.132300
     22 C19         59.8700   -66.6670   -32.6430 ca         1 A1H      -0.049000
     23 C9          59.8870   -66.9060   -34.0150 ca         1 A1H      -0.139600
     24 N19         55.1170   -69.0270   -36.2940 nb         1 A1H      -0.677000
     25 N9          53.6810   -65.6130   -29.8530 na         1 A1H      -0.289300
     26 N3          51.4490   -66.3600   -29.2470 nb         1 A1H      -0.214000
     27 N1          49.9230   -66.1950   -31.0790 nb         1 A1H      -0.307000
     28 N7          53.3050   -65.0440   -31.9760 nd         1 A1H      -0.564100
     29 O3          55.7520   -67.3460   -26.4950 oh         1 A1H      -0.689000
     30 O11         62.2080   -66.5020   -34.1570 o          1 A1H      -0.712000
     31 O12         61.1000   -66.9570   -36.0410 o          1 A1H      -0.712000
     32 O4          55.2480   -64.8610   -28.3190 os         1 A1H      -0.441000
     33 O2          54.7240   -68.3720   -28.7210 oh         1 A1H      -0.677000
     34 S1          57.7880   -64.9340   -30.1910 ss         1 A1H      -0.435000
     35 H46         58.7080   -67.4120   -35.7180 ha         1 A1H       0.137000
     36 H47         54.9900   -66.3660   -33.5100 ha         1 A1H       0.129000
     37 H48         52.9290   -67.0360   -34.7080 ha         1 A1H       0.112000
     38 H49         53.0900   -68.7450   -36.5080 h4         1 A1H       0.003100
     39 H3          57.3090   -67.3520   -27.8620 h1         1 A1H       0.062700
     40 H50         57.1270   -69.1880   -35.9280 h4         1 A1H       0.030100
     41 H51         56.6050   -67.2440   -31.9890 ha         1 A1H       0.085000
     42 H1          53.6630   -66.1310   -27.8780 h2         1 A1H       0.111700
     43 H4          56.4780   -64.9830   -26.6700 h1         1 A1H       0.057700
     44 H8          55.2310   -64.8480   -31.1140 h5         1 A1H       0.100800
     45 H2          55.8870   -67.0120   -29.7620 h1         1 A1H       0.069700
     46 H5'2        57.6720   -63.6720   -28.2240 h1         1 A1H       0.076200
     47 H5'1        58.5750   -65.1370   -27.9200 h1         1 A1H       0.076200
     48 H44         59.6830   -66.4290   -30.0300 h1         1 A1H       0.054200
     49 H43         58.1620   -67.3170   -29.9040 h1         1 A1H       0.054200
     50 H45         60.7890   -66.3900   -32.1410 ha         1 A1H       0.133000
     51 HN61        49.5710   -65.5430   -33.4880 hn         1 A1H       0.504500
     52 HN62        51.1850   -65.0210   -33.8060 hn         1 A1H       0.504500
     53 HO3         56.3570   -67.1690   -25.7680 ho         1 A1H       0.499000
     54 HO2         54.3400   -68.5860   -29.5760 ho         1 A1H       0.516000
     55 N6          50.5210   -65.4390   -33.1770 nv         1 A1H      -1.068900
     56 H6          49.4680   -66.8730   -29.2030 h5         1 A1H       0.041100
@<TRIPOS>BOND
     1     1    23 1   
     2     1    30 1   
     3     1    31 1   
     4     2     3 ar  
     5     2    23 ar  
     6     2    35 1   
     7     3     4 1   
     8     3    10 ar  
     9     4     5 ar  
    10     4     9 ar  
    11     5     6 ar  
    12     5    36 1   
    13     6     7 ar  
    14     6    37 1   
    15     7    24 ar  
    16     7    38 1   
    17     8    15 1   
    18     8    18 1   
    19     8    29 1   
    20     8    39 1   
    21     9    24 ar  
    22     9    40 1   
    23    10    21 ar  
    24    10    41 1   
    25    11    18 1   
    26    11    25 1   
    27    11    32 1   
    28    11    42 1   
    29    12    16 ar  
    30    12    25 1   
    31    12    26 ar  
    32    13    26 ar  
    33    13    27 ar  
    34    13    56 1   
    35    14    16 ar  
    36    14    27 ar  
    37    14    55 1   
    38    15    19 1   
    39    15    32 1   
    40    15    43 1   
    41    16    28 1   
    42    17    25 1   
    43    17    28 2   
    44    17    44 1   
    45    18    33 1   
    46    18    45 1   
    47    19    34 1   
    48    19    46 1   
    49    19    47 1   
    50    20    21 1   
    51    20    34 1   
    52    20    48 1   
    53    20    49 1   
    54    21    22 ar  
    55    22    23 ar  
    56    22    50 1   
    57    29    53 1   
    58    33    54 1   
    59    51    55 1   
    60    52    55 1   
@<TRIPOS>SUBSTRUCTURE
     1 A1H         1 TEMP              0 ****  ****    0 ROOT
