@<TRIPOS>MOLECULE
A1H
   45    48     1     0     0
SMALL
abcg2


@<TRIPOS>ATOM
      1 C1          -9.0400    10.2830    29.1770 c3         1 A1H      -0.123100
      2 C2          -8.4280    10.0440    27.7960 c6         1 A1H       0.170200
      3 C5          -6.3470    10.4680    26.4040 c6         1 A1H       0.201300
      4 C7          -7.3300     8.2590    26.3490 c6         1 A1H       0.201300
      5 C8          -8.1180     8.5570    27.6140 c6         1 A1H      -0.066400
      6 C10         -3.8180     9.1650    25.5160 ca         1 A1H       0.299900
      7 C12         -3.0240     7.9680    23.7690 ca         1 A1H       0.321800
      8 C13         -2.1410     7.4350    22.7650 cc         1 A1H      -0.205000
      9 C14         -2.9030     6.5530    22.0390 cd         1 A1H      -0.126100
     10 C16         -4.2820     7.3690    23.5830 ca         1 A1H      -0.070200
     11 C19          0.0650     7.8730    23.7680 ca         1 A1H      -0.079000
     12 C21          2.0320     8.3390    22.4720 ca         1 A1H      -0.101000
     13 C22          1.2760     8.2230    21.3180 ca         1 A1H       0.115000
     14 C24         -0.0860     7.9340    21.3830 ca         1 A1H       0.119000
     15 N3          -9.3170    10.4690    26.7160 n8         1 A1H      -0.996200
     16 C4          -7.1120    10.8130    27.6690 c6         1 A1H      -0.066400
     17 N6          -6.1010     9.0300    26.3160 nh         1 A1H      -0.776400
     18 C9          -5.1280     8.6310    25.3990 ca         1 A1H       0.252000
     19 N11         -2.8040     8.8630    24.7350 nb         1 A1H      -0.611000
     20 N15         -4.1730     6.5140    22.5300 na         1 A1H      -0.214700
     21 C17         -5.3620     7.7030    24.3920 ca         1 A1H      -0.158000
     22 C18         -0.7190     7.7430    22.6180 ca         1 A1H       0.020200
     23 C20          1.4150     8.1670    23.7000 ca         1 A1H      -0.104000
     24 CL25        -0.9810     7.8470    19.9110 cl         1 A1H      -0.187000
     25 H31         -8.3710     9.9670    29.9790 hc         1 A1H       0.038700
     26 H30         -9.2600    11.3430    29.3230 hc         1 A1H       0.038700
     27 H32         -9.9760     9.7300    29.2850 hc         1 A1H       0.038700
     28 H35         -5.3980    11.0020    26.4110 h1         1 A1H       0.042700
     29 H36         -6.9010    10.8160    25.5210 h1         1 A1H       0.042700
     30 H38         -7.9560     8.4510    25.4650 h1         1 A1H       0.042700
     31 H37         -7.0790     7.1970    26.3370 h1         1 A1H       0.042700
     32 H39         -9.0480     7.9790    27.5980 hc         1 A1H       0.047450
     33 H40         -7.5470     8.2060    28.4790 hc         1 A1H       0.047450
     34 H41         -3.6100     9.8680    26.3160 h4         1 A1H       0.022100
     35 H42         -2.6270     5.9200    21.2130 h4         1 A1H       0.223000
     36 H44         -0.3990     7.7260    24.7330 ha         1 A1H       0.136000
     37 H46          3.0880     8.5620    22.4060 ha         1 A1H       0.129000
     38 H28        -10.2020     9.9800    26.7970 hn         1 A1H       0.393500
     39 H27         -9.5340    11.4530    26.8290 hn         1 A1H       0.393500
     40 H33         -6.4840    10.5910    28.5380 hc         1 A1H       0.047450
     41 H34         -7.3040    11.8900    27.6880 hc         1 A1H       0.047450
     42 H29         -4.9100     5.9350    22.1610 hn         1 A1H       0.353000
     43 H43         -6.3350     7.2580    24.2290 ha         1 A1H       0.121000
     44 H45          1.9960     8.2550    24.6080 ha         1 A1H       0.121000
     45 CL23         2.0500     8.4520    19.7930 cl         1 A1H      -0.184000
@<TRIPOS>BOND
     1     1     2 1   
     2     1    25 1   
     3     1    26 1   
     4     1    27 1   
     5     2     5 1   
     6     2    15 1   
     7     2    16 1   
     8     3    16 1   
     9     3    17 1   
    10     3    28 1   
    11     3    29 1   
    12     4     5 1   
    13     4    17 1   
    14     4    30 1   
    15     4    31 1   
    16     5    32 1   
    17     5    33 1   
    18     6    18 ar  
    19     6    19 ar  
    20     6    34 1   
    21     7     8 1   
    22     7    10 ar  
    23     7    19 ar  
    24     8     9 2   
    25     8    22 1   
    26     9    20 1   
    27     9    35 1   
    28    10    20 1   
    29    10    21 ar  
    30    11    22 ar  
    31    11    23 ar  
    32    11    36 1   
    33    12    13 ar  
    34    12    23 ar  
    35    12    37 1   
    36    13    14 ar  
    37    13    45 1   
    38    14    22 ar  
    39    14    24 1   
    40    15    38 1   
    41    15    39 1   
    42    16    40 1   
    43    16    41 1   
    44    17    18 1   
    45    18    21 ar  
    46    20    42 1   
    47    21    43 1   
    48    23    44 1   
@<TRIPOS>SUBSTRUCTURE
     1 A1H         1 TEMP              0 ****  ****    0 ROOT
