@<TRIPOS>MOLECULE
A1H
   17    18     1     0     0
SMALL
No Charge or Current Charge


@<TRIPOS>ATOM
      1 C2          -6.9030     8.9480    12.4700 ca         1 A1H       0.329000
      2 C3          -5.9940     9.5830    11.6150 ca         1 A1H      -0.245000
      3 C6          -6.6930     7.0330    11.0650 ca         1 A1H       0.367800
      4 C7          -7.2190     5.7110    10.9960 cc         1 A1H      -0.356800
      5 C8          -8.0920     5.5480    12.0680 cd         1 A1H      -0.156100
      6 C10         -7.2490     7.6270    12.1610 ca         1 A1H      -0.152200
      7 N1          -7.4150     9.6090    13.5540 nv         1 A1H      -1.083000
      8 C4          -5.4790     8.8780    10.5060 ca         1 A1H       0.352900
      9 N5          -5.8200     7.5980    10.2180 nb         1 A1H      -0.652000
     10 N9          -8.1210     6.7540    12.8130 na         1 A1H      -0.219700
     11 H15         -5.6830    10.6070    11.7930 ha         1 A1H       0.117000
     12 H17         -6.9850     4.9650    10.2430 ha         1 A1H       0.216000
     13 H18         -8.6870     4.6810    12.3530 h4         1 A1H       0.212000
     14 H13         -7.9110     9.0900    14.2740 hn         1 A1H       0.455000
     15 H14         -7.0210    10.5100    13.8220 hn         1 A1H       0.455000
     16 H16         -4.7710     9.3540     9.8290 h4         1 A1H       0.013100
     17 H1          -8.6750     6.9440    13.6440 hn         1 A1H       0.346000
@<TRIPOS>BOND
     1     1     2 ar  
     2     1     6 ar  
     3     1     7 1   
     4     2     8 ar  
     5     2    11 1   
     6     3     4 1   
     7     3     6 ar  
     8     3     9 ar  
     9     4     5 2   
    10     4    12 1   
    11     5    10 1   
    12     5    13 1   
    13     6    10 1   
    14     7    14 1   
    15     7    15 1   
    16     8     9 ar  
    17     8    16 1   
    18    10    17 1   
@<TRIPOS>SUBSTRUCTURE
     1 A1H         1 TEMP              0 ****  ****    0 ROOT
