@<TRIPOS>MOLECULE
A1H
   30    32     1     0     0
SMALL
abcg2


@<TRIPOS>ATOM
      1 N1          -7.4140     9.8920    13.9150 nv         1 A1H      -1.089000
      2 C4          -5.5560     9.6710    10.7570 ca         1 A1H       0.389900
      3 C6          -6.3710     7.6440    11.2040 ca         1 A1H       0.368300
      4 C7          -6.6870     6.1860    11.0880 c5         1 A1H      -0.210000
      5 C8          -7.4840     5.9920    12.3400 ce         1 A1H       0.324300
      6 C10         -6.9580     8.0820    12.3880 ca         1 A1H      -0.071600
      7 C15        -10.0720     4.0220    15.7610 ca         1 A1H      -0.132000
      8 C2          -6.8390     9.4160    12.7950 ca         1 A1H       0.418000
      9 C3          -6.0920    10.2160    11.9080 ca         1 A1H      -0.260000
     10 N5          -5.6730     8.3920    10.3740 nb         1 A1H      -0.676000
     11 N9          -7.6240     7.0530    13.0470 nf         1 A1H      -0.521100
     12 O12         -7.8920     3.6940    12.0550 o          1 A1H      -0.568100
     13 N13         -8.7620     4.7330    13.9000 ns         1 A1H      -0.126000
     14 C14         -9.4320     3.7080    14.5620 ca         1 A1H      -0.072000
     15 C16        -10.7450     3.0320    16.4490 ca         1 A1H      -0.136000
     16 C17        -10.7650     1.7500    15.9200 ca         1 A1H       0.310900
     17 N18        -10.1630     1.4410    14.7810 nb         1 A1H      -0.646000
     18 C19         -9.5120     2.3850    14.1130 ca         1 A1H       0.319900
     19 H23         -7.7720     9.2460    14.5970 hn         1 A1H       0.488500
     20 H22         -7.1480    10.7980    14.2610 hn         1 A1H       0.488500
     21 H25         -4.9860    10.3140    10.0950 h4         1 A1H       0.020100
     22 H26         -7.2610     5.9440    10.1890 hc         1 A1H       0.112200
     23 H24         -5.9340    11.2650    12.1240 ha         1 A1H       0.124000
     24 H27         -8.7950     5.6440    14.3420 hn         1 A1H       0.176000
     25 H29        -11.2480     3.2510    17.3810 ha         1 A1H       0.123000
     26 H30        -11.2840     0.9480    16.4330 h4         1 A1H       0.022100
     27 H31         -9.0400     2.0800    13.1910 h4         1 A1H       0.052100
     28 H1          -5.7920     5.5580    11.0680 hc         1 A1H       0.112200
     29 C11         -8.0640     4.6840    12.7420 c          1 A1H       0.541800
     30 H28        -10.0380     5.0330    16.1490 ha         1 A1H       0.116000
@<TRIPOS>BOND
     1     1     8 1   
     2     1    19 1   
     3     1    20 1   
     4     2     9 ar  
     5     2    10 ar  
     6     2    21 1   
     7     3     4 1   
     8     3     6 ar  
     9     3    10 ar  
    10     4     5 1   
    11     4    22 1   
    12     4    28 1   
    13     5    11 2   
    14     5    29 1   
    15     6     8 ar  
    16     6    11 1   
    17     7    14 ar  
    18     7    15 ar  
    19     7    30 1   
    20     8     9 ar  
    21     9    23 1   
    22    12    29 2   
    23    13    14 1   
    24    13    24 1   
    25    13    29 1   
    26    14    18 ar  
    27    15    16 ar  
    28    15    25 1   
    29    16    17 ar  
    30    16    26 1   
    31    17    18 ar  
    32    18    27 1   
@<TRIPOS>SUBSTRUCTURE
     1 A1H         1 TEMP              0 ****  ****    0 ROOT
