@<TRIPOS>MOLECULE
A1H
   46    48     1     0     0
SMALL
No Charge or Current Charge


@<TRIPOS>ATOM
      1 C1         -17.5730   -36.5250    30.6060 c6         1 A1H       0.190500
      2 C2         -18.4760   -35.8910    31.7100 c6         1 A1H       0.144600
      3 C3         -17.0400   -34.0080    31.9850 c6         1 A1H       0.143600
      4 C7         -14.0810   -38.7860    29.0720 c          1 A1H       0.736700
      5 C8         -12.7660   -36.8500    29.0410 c2         1 A1H       0.718200
      6 C9         -13.7840   -36.0250    29.8030 c6         1 A1H      -0.158500
      7 C10        -11.2420   -34.8190    28.9990 c6         1 A1H       0.222800
      8 C11         -9.7340   -34.5700    29.2360 c6         1 A1H      -0.093400
      9 C12         -8.8700   -35.0780    28.0680 c6         1 A1H      -0.076400
     10 C13         -9.1780   -36.5680    27.8180 c6         1 A1H      -0.084400
     11 C14        -10.6920   -36.8520    27.5750 c6         1 A1H       0.164500
     12 C15        -11.1910   -36.4690    26.1240 c3         1 A1H       0.285000
     13 F2         -10.4510   -37.0810    25.1710 f          1 A1H      -0.114667
     14 F          -11.1320   -35.1400    25.8760 f          1 A1H      -0.114667
     15 F1         -12.4740   -36.8470    25.9190 f          1 A1H      -0.114667
     16 N2         -11.5490   -36.2540    28.6790 nh         1 A1H      -0.754600
     17 N1         -12.9210   -38.1020    28.7690 ne         1 A1H      -0.760100
     18 O1         -14.2160   -39.9710    28.8290 o          1 A1H      -0.538100
     19 C6         -15.1750   -38.0220    29.6920 ce         1 A1H      -0.433200
     20 C5         -15.0970   -36.7290    30.0360 c2         1 A1H       0.190800
     21 N          -16.1500   -36.0180    30.6370 nh         1 A1H      -0.672400
     22 C          -18.1690   -36.3090    29.1880 c3         1 A1H      -0.115100
     23 C4         -16.0350   -34.5380    30.9230 c6         1 A1H       0.178800
     24 O          -18.3800   -34.4530    31.7020 os         1 A1H      -0.435000
     25 H1         -17.5960   -37.6030    30.8140 h1         1 A1H       0.075700
     26 H2         -19.5240   -36.1830    31.5520 h1         1 A1H       0.057700
     27 H3         -18.1710   -36.2670    32.6970 h1         1 A1H       0.057700
     28 H4         -16.7460   -34.3650    32.9830 h1         1 A1H       0.054200
     29 H5         -17.0200   -32.9090    32.0000 h1         1 A1H       0.054200
     30 H6         -13.3550   -35.7570    30.7750 hc         1 A1H       0.079700
     31 H7         -13.9670   -35.1010    29.2430 hc         1 A1H       0.079700
     32 H8         -11.6110   -34.1620    28.1980 h1         1 A1H       0.052700
     33 H9         -11.7450   -34.5000    29.9220 h1         1 A1H       0.052700
     34 H10         -9.4280   -35.0730    30.1640 hc         1 A1H       0.051700
     35 H11         -9.5570   -33.4970    29.3940 hc         1 A1H       0.051700
     36 H12         -7.8050   -34.9510    28.3080 hc         1 A1H       0.054200
     37 H13         -9.0560   -34.4810    27.1650 hc         1 A1H       0.054200
     38 H14         -8.8510   -37.1470    28.6930 hc         1 A1H       0.063700
     39 H15         -8.5770   -36.9390    26.9770 hc         1 A1H       0.063700
     40 H16        -10.7630   -37.9500    27.6060 h1         1 A1H       0.136700
     41 H17        -16.0660   -38.6140    29.8540 ha         1 A1H       0.206000
     42 H18        -19.1890   -36.7080    29.1250 hc         1 A1H       0.048367
     43 H19        -18.2110   -35.2440    28.9290 hc         1 A1H       0.048367
     44 H20        -17.5710   -36.8150    28.4220 hc         1 A1H       0.048367
     45 H21        -15.0330   -34.2980    31.3050 h1         1 A1H       0.048200
     46 H22        -16.1630   -33.9710    29.9900 h1         1 A1H       0.048200
@<TRIPOS>BOND
     1     1     2 1   
     2     1    21 1   
     3     1    22 1   
     4     1    25 1   
     5     2    24 1   
     6     2    26 1   
     7     2    27 1   
     8     3    23 1   
     9     3    24 1   
    10     3    28 1   
    11     3    29 1   
    12     4    17 1   
    13     4    18 2   
    14     4    19 1   
    15     5     6 1   
    16     5    16 1   
    17     5    17 2   
    18     6    20 1   
    19     6    30 1   
    20     6    31 1   
    21     7     8 1   
    22     7    16 1   
    23     7    32 1   
    24     7    33 1   
    25     8     9 1   
    26     8    34 1   
    27     8    35 1   
    28     9    10 1   
    29     9    36 1   
    30     9    37 1   
    31    10    11 1   
    32    10    38 1   
    33    10    39 1   
    34    11    12 1   
    35    11    16 1   
    36    11    40 1   
    37    12    13 1   
    38    12    14 1   
    39    12    15 1   
    40    19    20 2   
    41    19    41 1   
    42    20    21 1   
    43    21    23 1   
    44    22    42 1   
    45    22    43 1   
    46    22    44 1   
    47    23    45 1   
    48    23    46 1   
@<TRIPOS>SUBSTRUCTURE
     1 A1H         1 TEMP              0 ****  ****    0 ROOT
