@<TRIPOS>MOLECULE
A1H
   12    12     1     0     0
SMALL
No Charge or Current Charge


@<TRIPOS>ATOM
      1 C2           2.8890    73.6420    10.1650 ca         1 A1H       0.593900
      2 C5           3.2180    71.7580     8.2670 ca         1 A1H       0.327000
      3 C8           3.7330    73.8600     9.0140 ca         1 A1H       0.333000
      4 N1           2.6510    74.5070    11.1810 nv         1 A1H      -1.054900
      5 N3           2.2160    72.5040    10.3800 nb         1 A1H      -0.723000
      6 C4           2.3880    71.5540     9.4110 ca         1 A1H       0.370900
      7 Cl6          3.4050    70.5010     7.0490 cl         1 A1H      -0.144000
      8 N7           3.9040    72.9130     8.0500 nb         1 A1H      -0.591000
      9 Cl9          4.6070    75.3740     8.7770 cl         1 A1H      -0.155000
     10 H10          2.2350    74.0920    12.0080 hn         1 A1H       0.499000
     11 H11          3.3210    75.2560    11.3380 hn         1 A1H       0.499000
     12 H12          1.8560    70.6130     9.5480 h4         1 A1H       0.045100
@<TRIPOS>BOND
     1     1     3 ar  
     2     1     4 1   
     3     1     5 ar  
     4     2     6 ar  
     5     2     7 1   
     6     2     8 ar  
     7     3     8 ar  
     8     3     9 1   
     9     4    10 1   
    10     4    11 1   
    11     5     6 ar  
    12     6    12 1   
@<TRIPOS>SUBSTRUCTURE
     1 A1H         1 TEMP              0 ****  ****    0 ROOT
