@<TRIPOS>MOLECULE
A1H
   46    50     1     0     0
SMALL
No Charge or Current Charge


@<TRIPOS>ATOM
      1 C2          -7.5750    11.2620    24.7930 c6         1 A1H       0.160500
      2 C3          -7.5740     9.7980    24.2710 c6         1 A1H      -0.122400
      3 C5          -7.5800     8.9390    26.7440 c5         1 A1H      -0.077400
      4 C6          -6.7380    10.0620    27.4550 c5         1 A1H      -0.077400
      5 C7          -5.7020    10.5110    26.3780 c5         1 A1H       0.206000
      6 C8          -6.2120    11.6400    25.4340 c6         1 A1H      -0.122400
      7 C10         -4.4310     8.8530    24.8920 ca         1 A1H       0.282000
      8 C11         -3.2960     9.7180    24.7160 ca         1 A1H       0.270900
      9 C13         -2.1960     8.1700    23.4480 ca         1 A1H       0.307800
     10 C14         -1.1840     7.5400    22.6570 cc         1 A1H      -0.202000
     11 C15         -1.6200     6.2560    22.3440 cd         1 A1H      -0.127100
     12 C19          0.1470     8.0300    22.2950 ca         1 A1H       0.019200
     13 C21          2.2640     9.0190    23.0200 ca         1 A1H      -0.104000
     14 C22          2.7380     8.9890    21.6990 ca         1 A1H      -0.100000
     15 C23          1.9210     8.4900    20.6710 ca         1 A1H       0.115000
     16 C25          0.6240     8.0100    20.9600 ca         1 A1H       0.120000
     17 N1          -7.9260    12.2030    23.7130 n8         1 A1H      -0.989200
     18 C4          -6.9550     8.8290    25.3190 c5         1 A1H       0.206000
     19 N9          -5.5780     9.2340    25.6530 nh         1 A1H      -0.778400
     20 N12         -2.1800     9.3950    24.0020 nb         1 A1H      -0.600000
     21 N16         -2.9150     6.0770    22.8960 na         1 A1H      -0.219700
     22 C17         -3.2160     7.2600    23.5610 ca         1 A1H      -0.054200
     23 C18         -4.3710     7.5720    24.2910 ca         1 A1H      -0.177000
     24 C20          0.9760     8.5440    23.3130 ca         1 A1H      -0.079000
     25 Cl24         2.5490     8.4860    19.0210 cl         1 A1H      -0.184000
     26 Cl26        -0.4040     7.4310    19.6380 cl         1 A1H      -0.184000
     27 H30         -8.3560    11.3530    25.5650 h1         1 A1H       0.059700
     28 H35         -8.6000     9.4840    24.0370 hc         1 A1H       0.053700
     29 H34         -7.0000     9.7260    23.3380 hc         1 A1H       0.053700
     30 H37         -8.6510     9.1700    26.7120 hc         1 A1H       0.052450
     31 H36         -7.4800     7.9900    27.2820 hc         1 A1H       0.052450
     32 H38         -6.2260     9.6540    28.3340 hc         1 A1H       0.052450
     33 H39         -7.3560    10.8940    27.8090 hc         1 A1H       0.052450
     34 H32         -4.7630    10.8260    26.8550 h1         1 A1H       0.072200
     35 H41         -5.4610    11.8210    24.6540 hc         1 A1H       0.053700
     36 H40         -6.3090    12.5760    26.0000 hc         1 A1H       0.053700
     37 H42         -3.2820    10.7120    25.1600 h4         1 A1H       0.017100
     38 H43         -1.1150     5.4680    21.7900 h4         1 A1H       0.223000
     39 H46          2.8950     9.4080    23.8160 ha         1 A1H       0.121000
     40 H47          3.7350     9.3580    21.4700 ha         1 A1H       0.129000
     41 H29         -7.8560    13.1600    24.0760 hn         1 A1H       0.393500
     42 H27         -7.1930    12.1640    22.9970 hn         1 A1H       0.393500
     43 H31         -7.0330     7.7990    24.9440 h1         1 A1H       0.072200
     44 H33         -3.4960     5.2450    22.8350 hn         1 A1H       0.353000
     45 H44         -5.1720     6.8480    24.3980 ha         1 A1H       0.120000
     46 H45          0.6180     8.5670    24.3400 ha         1 A1H       0.134000
@<TRIPOS>BOND
     1     1     2 1   
     2     1     6 1   
     3     1    17 1   
     4     1    27 1   
     5     2    18 1   
     6     2    28 1   
     7     2    29 1   
     8     3     4 1   
     9     3    18 1   
    10     3    30 1   
    11     3    31 1   
    12     4     5 1   
    13     4    32 1   
    14     4    33 1   
    15     5     6 1   
    16     5    19 1   
    17     5    34 1   
    18     6    35 1   
    19     6    36 1   
    20     7     8 ar  
    21     7    19 1   
    22     7    23 ar  
    23     8    20 ar  
    24     8    37 1   
    25     9    10 1   
    26     9    20 ar  
    27     9    22 ar  
    28    10    11 2   
    29    10    12 1   
    30    11    21 1   
    31    11    38 1   
    32    12    16 ar  
    33    12    24 ar  
    34    13    14 ar  
    35    13    24 ar  
    36    13    39 1   
    37    14    15 ar  
    38    14    40 1   
    39    15    16 ar  
    40    15    25 1   
    41    16    26 1   
    42    17    41 1   
    43    17    42 1   
    44    18    19 1   
    45    18    43 1   
    46    21    22 1   
    47    21    44 1   
    48    22    23 ar  
    49    23    45 1   
    50    24    46 1   
@<TRIPOS>SUBSTRUCTURE
     1 A1H         1 TEMP              0 ****  ****    0 ROOT
