@<TRIPOS>MOLECULE
A1H
   51    56     1     0     0
SMALL
abcg2


@<TRIPOS>ATOM
      1 C4           4.4520    50.8380     2.0020 ca         1 A1H      -0.148000
      2 C5           3.1240    51.2150     1.7250 ca         1 A1H       0.174000
      3 C7           2.7330    51.4630     0.4300 ca         1 A1H      -0.009800
      4 C8           3.7110    51.3130    -0.6090 ca         1 A1H      -0.072000
      5 C10          5.3940    50.6970     0.9500 ca         1 A1H      -0.057000
      6 C13          0.5620    52.7930     0.6150 cc         1 A1H      -0.139100
      7 C15         -0.6050    51.9980    -1.1010 ca         1 A1H       0.373500
      8 C20          0.6340    51.3370    -1.0730 ca         1 A1H       0.254800
      9 C22         -3.5920    51.0100    -3.7520 c5         1 A1H       0.216500
     10 C24         -3.1390    49.8700    -5.8510 c5         1 A1H      -0.080900
     11 C26         -2.7680    48.2610    -3.8760 c6         1 A1H      -0.120400
     12 N2           6.4070    50.2260     2.7330 na         1 A1H       0.149500
     13 C3           5.1700    50.5180     3.1480 cc         1 A1H      -0.186100
     14 CL6          2.0330    51.3110     3.0650 cl         1 A1H      -0.213000
     15 C9           5.0030    50.9430    -0.3840 ca         1 A1H      -0.085000
     16 N11          6.5840    50.3220     1.4220 nc         1 A1H      -0.287400
     17 C12          1.3790    51.8540     0.0410 cd         1 A1H      -0.172000
     18 N14         -0.6230    52.8770    -0.0700 na         1 A1H      -0.323400
     19 N16         -1.5650    51.7720    -1.9810 nb         1 A1H      -0.743000
     20 C17         -1.2780    50.8520    -2.8980 ca         1 A1H       0.586900
     21 C18         -0.0280    50.1580    -2.8710 ca         1 A1H       0.219900
     22 N19          0.9040    50.3960    -1.9780 nb         1 A1H      -0.564000
     23 N21         -2.1890    50.6240    -3.8810 nh         1 A1H      -0.755300
     24 C23         -4.0650    50.9250    -5.2090 c5         1 A1H      -0.080900
     25 C25         -2.2190    49.4220    -4.7100 c5         1 A1H       0.216500
     26 C27         -4.1500    48.5390    -3.2550 c6         1 A1H       0.167500
     27 N28         -5.2170    48.0370    -4.1190 n8         1 A1H      -0.998200
     28 C29         -4.2850    50.0160    -2.8170 c6         1 A1H      -0.120400
     29 H41          3.3920    51.5150    -1.6220 ha         1 A1H       0.128000
     30 H31         -3.6790    52.0200    -3.3540 h1         1 A1H       0.081200
     31 H47         -3.6670    49.0290    -6.3010 hc         1 A1H       0.052200
     32 H48         -2.5430    50.3220    -6.6450 hc         1 A1H       0.052200
     33 H49         -2.8200    47.3520    -4.4800 hc         1 A1H       0.057950
     34 H50         -2.0490    48.0570    -3.0780 hc         1 A1H       0.057950
     35 H37          8.3650    49.6060     2.9520 h1         1 A1H       0.063367
     36 H38          7.7740    50.6540     4.2560 h1         1 A1H       0.063367
     37 H39          7.2480    48.9630     4.1690 h1         1 A1H       0.063367
     38 H1           4.8900    50.4810     4.1890 h4         1 A1H       0.232000
     39 H42          5.7070    50.8450    -1.2000 ha         1 A1H       0.130000
     40 H30         -1.3800    53.5020     0.1580 hn         1 A1H       0.361000
     41 H44          0.1890    49.3940    -3.6070 h4         1 A1H       0.026100
     42 H45         -3.9370    51.8910    -5.6970 hc         1 A1H       0.052200
     43 H46         -5.1240    50.6750    -5.2780 hc         1 A1H       0.052200
     44 H32         -1.2260    49.1740    -5.0870 h1         1 A1H       0.081200
     45 H33         -4.2150    47.9370    -2.3440 h1         1 A1H       0.060700
     46 H35         -6.1110    48.2270    -3.6830 hn         1 A1H       0.393000
     47 H36         -5.2390    48.5300    -5.0020 hn         1 A1H       0.393000
     48 H51         -3.8480    50.1360    -1.8210 hc         1 A1H       0.057950
     49 H52         -5.3440    50.2700    -2.7150 hc         1 A1H       0.057950
     50 C1           7.5140    49.8390     3.5830 c3         1 A1H       0.057900
     51 H43          0.7430    53.4370     1.4590 h4         1 A1H       0.224000
@<TRIPOS>BOND
     1     1     2 ar  
     2     1     5 ar  
     3     1    13 2   
     4     2     3 ar  
     5     2    14 1   
     6     3     4 ar  
     7     3    17 1   
     8     4    15 ar  
     9     4    29 1   
    10     5    15 ar  
    11     5    16 2   
    12     6    17 2   
    13     6    18 1   
    14     6    51 1   
    15     7     8 ar  
    16     7    18 1   
    17     7    19 ar  
    18     8    17 1   
    19     8    22 ar  
    20     9    23 1   
    21     9    24 1   
    22     9    28 1   
    23     9    30 1   
    24    10    24 1   
    25    10    25 1   
    26    10    31 1   
    27    10    32 1   
    28    11    25 1   
    29    11    26 1   
    30    11    33 1   
    31    11    34 1   
    32    12    13 1   
    33    12    16 1   
    34    12    50 1   
    35    13    38 1   
    36    15    39 1   
    37    18    40 1   
    38    19    20 ar  
    39    20    21 ar  
    40    20    23 1   
    41    21    22 ar  
    42    21    41 1   
    43    23    25 1   
    44    24    42 1   
    45    24    43 1   
    46    25    44 1   
    47    26    27 1   
    48    26    28 1   
    49    26    45 1   
    50    27    46 1   
    51    27    47 1   
    52    28    48 1   
    53    28    49 1   
    54    35    50 1   
    55    36    50 1   
    56    37    50 1   
@<TRIPOS>SUBSTRUCTURE
     1 A1H         1 TEMP              0 ****  ****    0 ROOT
