@<TRIPOS>MOLECULE
A1H
   56    60     1     0     0
SMALL
No Charge or Current Charge


@<TRIPOS>ATOM
      1 C10         61.0390   -65.7260   -34.9550 c          1 A1H       0.715600
      2 C13         58.8480   -67.0170   -34.7720 ca         1 A1H      -0.054000
      3 C14         57.7570   -67.5450   -34.0350 cp         1 A1H      -0.081000
      4 C15         56.6620   -68.3110   -34.7150 cp         1 A1H      -0.053000
      5 C16         55.3210   -68.2420   -34.2640 ca         1 A1H      -0.078000
      6 C17         54.3330   -68.9800   -34.9370 ca         1 A1H      -0.168000
      7 C18         54.6970   -69.7680   -36.0410 ca         1 A1H       0.310900
      8 C3          56.1770   -67.2640   -27.8120 c5         1 A1H       0.141300
      9 C20         56.9180   -69.1380   -35.8420 ca         1 A1H       0.338900
     10 C21         57.7320   -67.3270   -32.6370 ca         1 A1H      -0.103000
     11 C1          54.2920   -66.2070   -28.7860 c5         1 A1H       0.280300
     12 C4          52.1600   -65.4220   -29.8930 ca         1 A1H       0.122500
     13 C2          49.9650   -65.1720   -29.2990 ca         1 A1H       0.172900
     14 C6          50.5230   -64.6790   -31.4630 ca         1 A1H       0.446900
     15 C11         56.2900   -65.7040   -27.6340 c5         1 A1H       0.136300
     16 C5          51.8620   -65.0120   -31.1680 ca         1 A1H      -0.095600
     17 C8          53.9800   -65.3990   -31.1810 cc         1 A1H       0.421700
     18 C22         55.3180   -67.3340   -29.1180 c5         1 A1H       0.131300
     19 C23         57.5470   -65.0200   -28.2500 c3         1 A1H       0.032600
     20 C12         58.6930   -66.3790   -30.4900 c3         1 A1H       0.134900
     21 C7          58.7520   -66.6040   -31.9930 ca         1 A1H      -0.132300
     22 C19         59.8210   -66.0860   -32.7470 ca         1 A1H      -0.049000
     23 C9          59.8840   -66.2880   -34.1440 ca         1 A1H      -0.139600
     24 N19         55.9670   -69.8530   -36.4940 nb         1 A1H      -0.677000
     25 N9          53.5010   -65.6750   -29.8950 na         1 A1H      -0.289300
     26 N3          51.2230   -65.5140   -28.9290 nb         1 A1H      -0.214000
     27 N1          49.5650   -64.7540   -30.5250 nb         1 A1H      -0.307000
     28 N7          52.9890   -64.9890   -31.9960 nd         1 A1H      -0.564100
     29 O3          55.5130   -67.8670   -26.6810 oh         1 A1H      -0.689000
     30 O11         61.9180   -65.1060   -34.3720 o          1 A1H      -0.712000
     31 O12         61.0530   -65.9170   -36.1630 o          1 A1H      -0.712000
     32 O4          55.0830   -65.1400   -28.2190 os         1 A1H      -0.441000
     33 O2          54.7400   -68.6340   -29.3720 oh         1 A1H      -0.677000
     34 S1          57.6060   -64.9310   -30.1070 ss         1 A1H      -0.435000
     35 H46         58.8790   -67.1640   -35.8480 ha         1 A1H       0.137000
     36 H47         55.0470   -67.6170   -33.4170 ha         1 A1H       0.129000
     37 H48         53.2970   -68.9420   -34.6140 ha         1 A1H       0.112000
     38 H49         53.9490   -70.3490   -36.5790 h4         1 A1H       0.003100
     39 H3          57.1640   -67.7240   -27.9650 h1         1 A1H       0.062700
     40 H50         57.9310   -69.2420   -36.2300 h4         1 A1H       0.030100
     41 H51         56.9180   -67.7330   -32.0440 ha         1 A1H       0.085000
     42 H1          53.5820   -66.5720   -28.0320 h2         1 A1H       0.111700
     43 H4          56.2930   -65.4580   -26.5640 h1         1 A1H       0.057700
     44 H8          55.0240   -65.5110   -31.4530 h5         1 A1H       0.100800
     45 H2          55.9260   -67.0420   -29.9810 h1         1 A1H       0.069700
     46 H5'2        57.5760   -63.9890   -27.8740 h1         1 A1H       0.076200
     47 H5'1        58.4510   -65.5210   -27.8790 h1         1 A1H       0.076200
     48 H44         59.6990   -66.1890   -30.0940 h1         1 A1H       0.054200
     49 H43         58.2980   -67.2760   -29.9980 h1         1 A1H       0.054200
     50 H45         60.6020   -65.5230   -32.2420 ha         1 A1H       0.133000
     51 HN61        49.2410   -63.7590   -32.7620 hn         1 A1H       0.504500
     52 HN62        50.8550   -63.9850   -33.3450 hn         1 A1H       0.504500
     53 HO3         56.2030   -68.0730   -26.0090 ho         1 A1H       0.499000
     54 HO2         54.0650   -68.5300   -30.0820 ho         1 A1H       0.516000
     55 N6          50.1240   -64.2570   -32.6930 nv         1 A1H      -1.068900
     56 H6          49.1960   -65.2390   -28.5310 h5         1 A1H       0.041100
@<TRIPOS>BOND
     1     1    23 1   
     2     1    30 1   
     3     1    31 1   
     4     2     3 ar  
     5     2    23 ar  
     6     2    35 1   
     7     3     4 1   
     8     3    10 ar  
     9     4     5 ar  
    10     4     9 ar  
    11     5     6 ar  
    12     5    36 1   
    13     6     7 ar  
    14     6    37 1   
    15     7    24 ar  
    16     7    38 1   
    17     8    15 1   
    18     8    18 1   
    19     8    29 1   
    20     8    39 1   
    21     9    24 ar  
    22     9    40 1   
    23    10    21 ar  
    24    10    41 1   
    25    11    18 1   
    26    11    25 1   
    27    11    32 1   
    28    11    42 1   
    29    12    16 ar  
    30    12    25 1   
    31    12    26 ar  
    32    13    26 ar  
    33    13    27 ar  
    34    13    56 1   
    35    14    16 ar  
    36    14    27 ar  
    37    14    55 1   
    38    15    19 1   
    39    15    32 1   
    40    15    43 1   
    41    16    28 1   
    42    17    25 1   
    43    17    28 2   
    44    17    44 1   
    45    18    33 1   
    46    18    45 1   
    47    19    34 1   
    48    19    46 1   
    49    19    47 1   
    50    20    21 1   
    51    20    34 1   
    52    20    48 1   
    53    20    49 1   
    54    21    22 ar  
    55    22    23 ar  
    56    22    50 1   
    57    29    53 1   
    58    33    54 1   
    59    51    55 1   
    60    52    55 1   
@<TRIPOS>SUBSTRUCTURE
     1 A1H         1 TEMP              0 ****  ****    0 ROOT
