@<TRIPOS>MOLECULE
A1H
   58    63     1     0     0
SMALL
No Charge or Current Charge


@<TRIPOS>ATOM
      1 C1          -3.2400    11.2110    26.3250 c3         1 A1H      -0.143400
      2 C2          -3.2630     9.8540    25.6340 ca         1 A1H       0.336300
      3 C5          -1.0590     7.7370    23.5980 cc         1 A1H      -0.203000
      4 C6          -1.4970     6.4880    23.1690 cd         1 A1H      -0.126100
      5 C8          -3.1520     7.4490    24.3380 ca         1 A1H      -0.106200
      6 C10         -4.4040     8.9960    25.6730 ca         1 A1H      -0.122300
      7 C11         -5.6860     9.3700    26.4140 c3         1 A1H       0.221100
      8 C13         -8.1240     9.7620    26.2410 c6         1 A1H       0.128300
      9 C14         -9.3380     9.9590    25.2750 c6         1 A1H       0.147300
     10 C16         -7.8390    10.9350    23.5920 c6         1 A1H       0.147300
     11 C19          1.0610     8.7050    24.4520 ca         1 A1H      -0.073000
     12 C21          2.9390     9.1630    22.9920 ca         1 A1H      -0.059000
     13 C24          5.4330     9.6780    20.4510 c3         1 A1H       0.168900
     14 C25          5.9230     8.5120    19.6290 cc         1 A1H      -0.244300
     15 C26          6.3810     7.3010    20.1740 cc         1 A1H       0.277900
     16 C31          2.2010     8.7000    21.9330 ca         1 A1H      -0.148000
     17 N3          -2.1170     9.5310    24.9800 nb         1 A1H      -0.631000
     18 C4          -2.1130     8.3390    24.3570 ca         1 A1H       0.354800
     19 N7          -2.8310     6.3040    23.6170 na         1 A1H      -0.213700
     20 C9          -4.3440     7.7520    25.0030 ca         1 A1H      -0.067000
     21 N12         -6.8330     9.5990    25.5060 n3         1 A1H      -0.725600
     22 N15         -9.1270    11.0920    24.3270 n7         1 A1H      -0.841400
     23 C17         -6.6250    10.7380    24.5560 c6         1 A1H       0.128300
     24 C18          0.3030     8.2190    23.3560 ca         1 A1H      -0.004800
     25 C20          2.3800     9.1760    24.2760 ca         1 A1H      -0.085000
     26 N22          4.2190     9.5900    22.6330 nc         1 A1H      -0.284400
     27 N23          4.2380     9.3640    21.2510 na         1 A1H       0.149500
     28 N27          6.7580     6.4150    19.2740 nd         1 A1H      -0.520800
     29 N28          6.5310     7.0900    18.0740 na         1 A1H       0.000800
     30 C29          6.0180     8.3780    18.2750 cd         1 A1H      -0.150000
     31 C30          3.0400     8.8300    20.7910 cc         1 A1H      -0.186100
     32 C32          0.8880     8.2230    22.0610 ca         1 A1H       0.172000
     33 Cl33         0.0140     7.6940    20.6190 cl         1 A1H      -0.217000
     34 H34         -2.3050    11.7520    26.1390 hc         1 A1H       0.047700
     35 H35         -4.0600    11.8460    25.9700 hc         1 A1H       0.047700
     36 H36         -3.3420    11.0970    27.4100 hc         1 A1H       0.047700
     37 H37         -0.9710     5.7260    22.5970 h4         1 A1H       0.221000
     38 H40         -5.9230     8.5430    27.0980 h1         1 A1H       0.041200
     39 H41         -5.5270    10.2530    27.0460 h1         1 A1H       0.041200
     40 H42         -8.3170     8.8800    26.8700 h1         1 A1H       0.036450
     41 H43         -8.0670    10.6290    26.9160 h1         1 A1H       0.036450
     42 H45        -10.2500    10.1310    25.8650 h1         1 A1H       0.058200
     43 H44         -9.4890     9.0300    24.7040 h1         1 A1H       0.058200
     44 H49         -7.6620    11.8170    22.9580 h1         1 A1H       0.058200
     45 H48         -7.9040    10.0620    22.9250 h1         1 A1H       0.058200
     46 H52          0.6240     8.7100    25.4470 ha         1 A1H       0.126000
     47 H55          6.2350    10.0080    21.1240 h1         1 A1H       0.070700
     48 H54          5.1890    10.5170    19.7880 h1         1 A1H       0.070700
     49 H56          6.4480     7.0400    21.2230 h4         1 A1H       0.051100
     50 H38         -3.4220     5.4910    23.4590 hn         1 A1H       0.353000
     51 H39         -5.1890     7.0660    25.0020 ha         1 A1H       0.137000
     52 H47         -9.0670    11.9550    24.8820 hn         1 A1H       0.400000
     53 H50         -5.7240    10.5730    23.9470 h1         1 A1H       0.036450
     54 H51         -6.4650    11.6710    25.1170 h1         1 A1H       0.036450
     55 H53          2.9520     9.5420    25.1250 ha         1 A1H       0.128000
     56 H57          6.7300     6.6560    17.1730 hn         1 A1H       0.374000
     57 H58          5.7750     9.0580    17.4650 h4         1 A1H       0.154000
     58 H59          2.9000     8.5930    19.7430 h4         1 A1H       0.229000
@<TRIPOS>BOND
     1     1     2 1   
     2     1    34 1   
     3     1    35 1   
     4     1    36 1   
     5     2     6 ar  
     6     2    17 ar  
     7     3     4 2   
     8     3    18 1   
     9     3    24 1   
    10     4    19 1   
    11     4    37 1   
    12     5    18 ar  
    13     5    19 1   
    14     5    20 ar  
    15     6     7 1   
    16     6    20 ar  
    17     7    21 1   
    18     7    38 1   
    19     7    39 1   
    20     8     9 1   
    21     8    21 1   
    22     8    40 1   
    23     8    41 1   
    24     9    22 1   
    25     9    42 1   
    26     9    43 1   
    27    10    22 1   
    28    10    23 1   
    29    10    44 1   
    30    10    45 1   
    31    11    24 ar  
    32    11    25 ar  
    33    11    46 1   
    34    12    16 ar  
    35    12    25 ar  
    36    12    26 2   
    37    13    14 1   
    38    13    27 1   
    39    13    47 1   
    40    13    48 1   
    41    14    15 1   
    42    14    30 2   
    43    15    28 2   
    44    15    49 1   
    45    16    31 2   
    46    16    32 ar  
    47    17    18 ar  
    48    19    50 1   
    49    20    51 1   
    50    21    23 1   
    51    22    52 1   
    52    23    53 1   
    53    23    54 1   
    54    24    32 ar  
    55    25    55 1   
    56    26    27 1   
    57    27    31 1   
    58    28    29 1   
    59    29    30 1   
    60    29    56 1   
    61    30    57 1   
    62    31    58 1   
    63    32    33 1   
@<TRIPOS>SUBSTRUCTURE
     1 A1H         1 TEMP              0 ****  ****    0 ROOT
