@<TRIPOS>MOLECULE
A1H
   62    67     1     0     0
SMALL
abcg2


@<TRIPOS>ATOM
      1 C1          43.3510    39.8140     9.3570 ca         1 A1H       0.140100
      2 C2          43.6650    38.7620    10.2150 ca         1 A1H      -0.196000
      3 C3          42.6370    37.9830    10.7330 ca         1 A1H      -0.075000
      4 C4          41.3140    38.2300    10.4120 ca         1 A1H      -0.139000
      5 O           44.2600    40.6320     8.7940 os         1 A1H      -0.343100
      6 C10         36.9230    40.0510     8.4640 ca         1 A1H      -0.117000
      7 C11         37.3670    38.7370     8.6190 ca         1 A1H      -0.009000
      8 C12         35.2100    37.5300     8.5170 c          1 A1H       0.668100
      9 C13         33.2770    36.0530     8.5020 c6         1 A1H       0.111000
     10 C14         32.5120    35.5530     7.2920 c6         1 A1H      -0.055200
     11 C15         33.2680    34.4450     6.6170 ce         1 A1H      -0.165000
     12 C16         34.5760    34.3020     6.8000 c2         1 A1H      -0.212200
     13 C17         35.4170    35.2220     7.6250 c6         1 A1H       0.137200
     14 C18         32.5200    33.5410     5.7140 ca         1 A1H       0.220800
     15 C19         32.0960    32.8470     3.5700 ca         1 A1H       0.135900
     16 C20         30.9320    31.8670     5.1740 ca         1 A1H       0.124500
     17 C21         30.1470    31.2080     7.1380 cc         1 A1H      -0.154100
     18 C22         31.0510    32.1850     7.4420 cd         1 A1H      -0.077400
     19 C23         31.4210    32.6690     8.7870 cx         1 A1H      -0.057500
     20 C24         30.6740    32.2070    10.0010 cx         1 A1H      -0.127400
     21 C25         30.5220    33.6190     9.5350 cx         1 A1H      -0.127400
     22 C26         31.5700    32.6290     6.1780 ca         1 A1H      -0.177800
     23 C27         38.6980    38.5110     8.9740 ca         1 A1H      -0.159000
     24 C5          40.9930    39.2820     9.5480 cp         1 A1H       0.002000
     25 C6          42.0180    40.0640     9.0290 ca         1 A1H      -0.136000
     26 C7          39.5870    39.5600     9.1830 cp         1 A1H      -0.010000
     27 C8          39.1250    40.8690     9.0430 ca         1 A1H      -0.123000
     28 C9          37.8060    41.0970     8.6860 ca         1 A1H      -0.089000
     29 N1          34.6590    36.3360     8.1580 n          1 A1H      -0.428800
     30 N2          32.7750    33.6290     4.4110 nb         1 A1H      -0.199000
     31 N3          31.1680    31.9600     3.8730 nb         1 A1H      -0.188000
     32 N4          30.0670    31.0270     5.7790 na         1 A1H      -0.320400
     33 O1          34.5410    38.4670     8.9270 o          1 A1H      -0.622100
     34 H11         37.0990    36.7520     8.3160 hn         1 A1H       0.147000
     35 H4          44.6870    38.5380    10.4890 ha         1 A1H       0.116000
     36 H5          42.8810    37.1720    11.4070 ha         1 A1H       0.110000
     37 H6          40.5330    37.6210    10.8470 ha         1 A1H       0.116000
     38 H3          46.1780    41.1670     8.5070 h1         1 A1H       0.040033
     39 H1          45.8600    40.5240    10.1270 h1         1 A1H       0.040033
     40 H2          45.9580    39.4240     8.7340 h1         1 A1H       0.040033
     41 H10         35.9090    40.2640     8.1670 ha         1 A1H       0.142000
     42 H13         33.2470    35.2920     9.2910 h1         1 A1H       0.059200
     43 H12         32.8180    36.9520     8.9000 h1         1 A1H       0.059200
     44 H15         31.5250    35.2090     7.6040 hc         1 A1H       0.070200
     45 H14         32.3440    36.3680     6.5800 hc         1 A1H       0.070200
     46 H16         35.1160    33.4900     6.3250 ha         1 A1H       0.190000
     47 H18         35.9110    34.6480     8.4210 h1         1 A1H       0.048700
     48 H17         36.2090    35.5920     6.9690 h1         1 A1H       0.048700
     49 H19         32.3360    32.9580     2.5180 h5         1 A1H       0.051100
     50 H20         29.5420    30.6060     7.7970 h4         1 A1H       0.219000
     51 H21         32.4840    32.8350     8.9280 hc         1 A1H       0.087700
     52 H23         29.8360    31.5340     9.8720 hc         1 A1H       0.072200
     53 H22         31.2480    32.0230    10.8990 hc         1 A1H       0.072200
     54 H25         29.5910    33.8980     9.0570 hc         1 A1H       0.072200
     55 H24         30.9830    34.4070    10.1170 hc         1 A1H       0.072200
     56 H26         39.0480    37.4890     9.0680 ha         1 A1H       0.108000
     57 H7          41.7960    40.8720     8.3410 ha         1 A1H       0.130000
     58 H8          39.7870    41.7060     9.2260 ha         1 A1H       0.119000
     59 H9          37.4510    42.1130     8.5750 ha         1 A1H       0.115000
     60 H           29.4810    30.3520     5.3130 hn         1 A1H       0.367000
     61 N           36.5770    37.6120     8.3750 ns         1 A1H      -0.164000
     62 C           45.6290    40.4130     9.0640 c3         1 A1H       0.149900
@<TRIPOS>BOND
     1     1     2 ar  
     2     1     5 1   
     3     1    25 ar  
     4     2     3 ar  
     5     2    35 1   
     6     3     4 ar  
     7     3    36 1   
     8     4    24 ar  
     9     4    37 1   
    10     5    62 1   
    11     6     7 ar  
    12     6    28 ar  
    13     6    41 1   
    14     7    23 ar  
    15     7    61 1   
    16     8    29 1   
    17     8    33 2   
    18     8    61 1   
    19     9    10 1   
    20     9    29 1   
    21     9    42 1   
    22     9    43 1   
    23    10    11 1   
    24    10    44 1   
    25    10    45 1   
    26    11    12 2   
    27    11    14 1   
    28    12    13 1   
    29    12    46 1   
    30    13    29 1   
    31    13    47 1   
    32    13    48 1   
    33    14    22 ar  
    34    14    30 ar  
    35    15    30 ar  
    36    15    31 ar  
    37    15    49 1   
    38    16    22 ar  
    39    16    31 ar  
    40    16    32 1   
    41    17    18 2   
    42    17    32 1   
    43    17    50 1   
    44    18    19 1   
    45    18    22 1   
    46    19    20 1   
    47    19    21 1   
    48    19    51 1   
    49    20    21 1   
    50    20    52 1   
    51    20    53 1   
    52    21    54 1   
    53    21    55 1   
    54    23    26 ar  
    55    23    56 1   
    56    24    25 ar  
    57    24    26 1   
    58    25    57 1   
    59    26    27 ar  
    60    27    28 ar  
    61    27    58 1   
    62    28    59 1   
    63    32    60 1   
    64    34    61 1   
    65    38    62 1   
    66    39    62 1   
    67    40    62 1   
@<TRIPOS>SUBSTRUCTURE
     1 A1H         1 TEMP              0 ****  ****    0 ROOT
