@<TRIPOS>MOLECULE
A1H
   45    48     1     0     0
SMALL
abcg2


@<TRIPOS>ATOM
      1 C1          -2.4770    10.7510    26.2090 c3         1 A1H      -0.144400
      2 C2          -2.8590     9.7940    25.1170 ca         1 A1H       0.342300
      3 C5          -1.3480     7.9070    22.3640 cc         1 A1H      -0.219000
      4 C6          -2.1840     7.1210    21.6090 cd         1 A1H      -0.115100
      5 C8          -3.4960     8.0560    23.1390 ca         1 A1H      -0.107200
      6 C10         -4.2070     9.3810    24.9620 ca         1 A1H      -0.124300
      7 C11         -5.2730     9.8650    25.9180 c3         1 A1H       0.220100
      8 C13         -7.6340     9.8020    26.3850 c6         1 A1H       0.127300
      9 C14         -9.0100     9.6430    25.7520 c6         1 A1H       0.146800
     10 C16         -8.2190    10.6950    23.7600 c6         1 A1H       0.146800
     11 C19          0.8780     7.9970    23.4130 ca         1 A1H      -0.079000
     12 C21          2.9050     8.3180    22.1660 ca         1 A1H      -0.100000
     13 C22          2.1560     8.3890    21.0020 ca         1 A1H       0.115000
     14 C24          0.7690     8.2690    21.0390 ca         1 A1H       0.120000
     15 N3          -1.8790     9.3700    24.3350 nb         1 A1H      -0.638000
     16 C4          -2.1860     8.5130    23.3600 ca         1 A1H       0.358800
     17 N7          -3.4590     7.2090    22.0700 na         1 A1H      -0.210700
     18 C9          -4.5290     8.4920    23.9540 ca         1 A1H      -0.063000
     19 N12         -6.6050     9.7950    25.3600 n3         1 A1H      -0.724600
     20 N15         -9.2990    10.6370    24.7310 n7         1 A1H      -0.840400
     21 C17         -6.8440    10.8530    24.3940 c6         1 A1H       0.127300
     22 C18          0.1020     8.0560    22.2520 ca         1 A1H       0.020200
     23 C20          2.2550     8.1260    23.3740 ca         1 A1H      -0.104000
     24 CL25        -0.1180     8.4230    19.5680 cl         1 A1H      -0.185000
     25 H28         -1.4010    10.9180    26.1980 hc         1 A1H       0.048700
     26 H26         -2.9720    11.7170    26.0930 hc         1 A1H       0.048700
     27 H27         -2.7520    10.3720    27.1950 hc         1 A1H       0.048700
     28 H29         -1.9530     6.4770    20.7760 h4         1 A1H       0.224000
     29 H32         -5.2450     9.2350    26.8140 h1         1 A1H       0.041700
     30 H33         -5.0360    10.8830    26.2650 h1         1 A1H       0.041700
     31 H35         -7.4510     8.9780    27.0800 h1         1 A1H       0.036450
     32 H34         -7.6120    10.7340    26.9780 h1         1 A1H       0.036450
     33 H37         -9.7770     9.6890    26.5270 h1         1 A1H       0.058700
     34 H36         -9.0750     8.6510    25.2930 h1         1 A1H       0.058700
     35 H41         -8.4020    11.5210    23.0690 h1         1 A1H       0.058700
     36 H40         -8.2360     9.7730    23.1700 h1         1 A1H       0.058700
     37 H44          0.3840     7.8320    24.3600 ha         1 A1H       0.133000
     38 H46          3.9810     8.4120    22.1220 ha         1 A1H       0.130000
     39 H30         -4.2450     6.7130    21.6820 hn         1 A1H       0.356000
     40 H31         -5.5530     8.1660    23.8140 ha         1 A1H       0.140000
     41 H39         -9.3860    11.5450    25.1760 hn         1 A1H       0.400000
     42 H43         -6.0770    10.8200    23.6160 h1         1 A1H       0.036450
     43 H42         -6.7740    11.8480    24.8710 h1         1 A1H       0.036450
     44 H45          2.8300     8.0690    24.2880 ha         1 A1H       0.121000
     45 CL23         2.9720     8.6420    19.5030 cl         1 A1H      -0.183000
@<TRIPOS>BOND
     1     1     2 1   
     2     1    25 1   
     3     1    26 1   
     4     1    27 1   
     5     2     6 ar  
     6     2    15 ar  
     7     3     4 2   
     8     3    16 1   
     9     3    22 1   
    10     4    17 1   
    11     4    28 1   
    12     5    16 ar  
    13     5    17 1   
    14     5    18 ar  
    15     6     7 1   
    16     6    18 ar  
    17     7    19 1   
    18     7    29 1   
    19     7    30 1   
    20     8     9 1   
    21     8    19 1   
    22     8    31 1   
    23     8    32 1   
    24     9    20 1   
    25     9    33 1   
    26     9    34 1   
    27    10    20 1   
    28    10    21 1   
    29    10    35 1   
    30    10    36 1   
    31    11    22 ar  
    32    11    23 ar  
    33    11    37 1   
    34    12    13 ar  
    35    12    23 ar  
    36    12    38 1   
    37    13    14 ar  
    38    13    45 1   
    39    14    22 ar  
    40    14    24 1   
    41    15    16 ar  
    42    17    39 1   
    43    18    40 1   
    44    19    21 1   
    45    20    41 1   
    46    21    42 1   
    47    21    43 1   
    48    23    44 1   
@<TRIPOS>SUBSTRUCTURE
     1 A1H         1 TEMP              0 ****  ****    0 ROOT
