@<TRIPOS>MOLECULE
A1H
   62    67     1     0     0
SMALL
No Charge or Current Charge


@<TRIPOS>ATOM
      1 C1          43.1030    39.3910     9.6560 ca         1 A1H       0.140100
      2 C2          43.4840    38.0380     9.5330 ca         1 A1H      -0.196000
      3 C3          42.5020    37.0380     9.4620 ca         1 A1H      -0.075000
      4 C4          41.1410    37.3820     9.5130 ca         1 A1H      -0.139000
      5 O           44.0220    40.4180     9.7260 os         1 A1H      -0.343100
      6 C10         36.5240    39.7890     9.7970 ca         1 A1H      -0.117000
      7 C11         36.9420    38.7120     8.9870 ca         1 A1H      -0.009000
      8 C12         34.6940    38.0140     7.9440 c          1 A1H       0.668100
      9 C13         32.7070    37.0290     6.7490 c6         1 A1H       0.111000
     10 C14         32.2790    36.0210     5.6560 c6         1 A1H      -0.055200
     11 C15         32.8860    34.6460     5.9060 ce         1 A1H      -0.165000
     12 C16         34.1590    34.5920     6.3430 c2         1 A1H      -0.212200
     13 C17         34.9700    35.8440     6.6260 c6         1 A1H       0.137200
     14 C18         32.0700    33.4390     5.5930 ca         1 A1H       0.220800
     15 C19         30.8790    32.2320     4.0250 ca         1 A1H       0.135900
     16 C20         31.0300    31.3270     6.1170 ca         1 A1H       0.124500
     17 C21         31.5170    31.0160     8.3480 cc         1 A1H      -0.154100
     18 C22         32.0660    32.2170     7.9280 cd         1 A1H      -0.077400
     19 C23         32.8020    33.1250     8.8460 cx         1 A1H      -0.057500
     20 C24         32.3300    33.3330    10.2670 cx         1 A1H      -0.127400
     21 C25         32.2120    34.4510     9.2610 cx         1 A1H      -0.127400
     22 C26         31.7740    32.4140     6.5190 ca         1 A1H      -0.177800
     23 C27         38.3100    38.3790     8.9480 ca         1 A1H      -0.159000
     24 C5          40.7300    38.7330     9.6370 cp         1 A1H       0.002000
     25 C6          41.7400    39.7250     9.7070 ca         1 A1H      -0.136000
     26 C7          39.2770    39.1000     9.6930 cp         1 A1H      -0.010000
     27 C8          38.8250    40.1780    10.4920 ca         1 A1H      -0.123000
     28 C9          37.4640    40.5170    10.5440 ca         1 A1H      -0.089000
     29 N1          34.1600    37.0070     7.1090 n          1 A1H      -0.428800
     30 N2          31.6040    33.3350     4.3270 nb         1 A1H      -0.199000
     31 N3          30.5680    31.2130     4.8590 nb         1 A1H      -0.188000
     32 N4          30.8840    30.4860     7.2060 na         1 A1H      -0.320400
     33 O1          33.9780    38.9040     8.3860 o          1 A1H      -0.622100
     34 H11         36.5100    37.1480     7.7400 hn         1 A1H       0.147000
     35 H4          44.5300    37.7460     9.4910 ha         1 A1H       0.116000
     36 H5          42.7940    35.9940     9.3700 ha         1 A1H       0.110000
     37 H6          40.3980    36.5900     9.4710 ha         1 A1H       0.116000
     38 H3          45.9850    41.1330     9.7510 h1         1 A1H       0.040033
     39 H1          45.7580    39.5460    10.5160 h1         1 A1H       0.040033
     40 H2          45.7250    39.6970     8.7380 h1         1 A1H       0.040033
     41 H10         35.4800    40.0750     9.8670 ha         1 A1H       0.142000
     42 H13         32.1270    36.8230     7.6600 h1         1 A1H       0.059200
     43 H12         32.4290    38.0410     6.4210 h1         1 A1H       0.059200
     44 H15         31.1820    35.9640     5.6150 hc         1 A1H       0.070200
     45 H14         32.6100    36.3870     4.6750 hc         1 A1H       0.070200
     46 H16         34.6620    33.6370     6.5020 ha         1 A1H       0.190000
     47 H18         35.7300    35.5800     7.3750 h1         1 A1H       0.048700
     48 H17         35.5040    36.1420     5.7120 h1         1 A1H       0.048700
     49 H19         30.5100    32.1560     3.0030 h5         1 A1H       0.051100
     50 H20         31.5190    30.5270     9.3190 h4         1 A1H       0.219000
     51 H21         33.8790    33.0900     8.7020 hc         1 A1H       0.087700
     52 H23         31.4110    32.8460    10.5840 hc         1 A1H       0.072200
     53 H22         33.0860    33.4270    11.0430 hc         1 A1H       0.072200
     54 H25         31.2210    34.7010     8.8900 hc         1 A1H       0.072200
     55 H24         32.8890    35.2950     9.3610 hc         1 A1H       0.072200
     56 H26         38.6320    37.5560     8.3150 ha         1 A1H       0.108000
     57 H7          41.4640    40.7720     9.7880 ha         1 A1H       0.130000
     58 H8          39.5320    40.7470    11.0900 ha         1 A1H       0.119000
     59 H9          37.1350    41.3440    11.1690 ha         1 A1H       0.115000
     60 H           30.3790    29.6060     7.1730 hn         1 A1H       0.367000
     61 N           36.0570    37.9240     8.2010 ns         1 A1H      -0.164000
     62 C           45.4410    40.1830     9.6800 c3         1 A1H       0.149900
@<TRIPOS>BOND
     1     1     2 ar  
     2     1     5 1   
     3     1    25 ar  
     4     2     3 ar  
     5     2    35 1   
     6     3     4 ar  
     7     3    36 1   
     8     4    24 ar  
     9     4    37 1   
    10     5    62 1   
    11     6     7 ar  
    12     6    28 ar  
    13     6    41 1   
    14     7    23 ar  
    15     7    61 1   
    16     8    29 1   
    17     8    33 2   
    18     8    61 1   
    19     9    10 1   
    20     9    29 1   
    21     9    42 1   
    22     9    43 1   
    23    10    11 1   
    24    10    44 1   
    25    10    45 1   
    26    11    12 2   
    27    11    14 1   
    28    12    13 1   
    29    12    46 1   
    30    13    29 1   
    31    13    47 1   
    32    13    48 1   
    33    14    22 ar  
    34    14    30 ar  
    35    15    30 ar  
    36    15    31 ar  
    37    15    49 1   
    38    16    22 ar  
    39    16    31 ar  
    40    16    32 1   
    41    17    18 2   
    42    17    32 1   
    43    17    50 1   
    44    18    19 1   
    45    18    22 1   
    46    19    20 1   
    47    19    21 1   
    48    19    51 1   
    49    20    21 1   
    50    20    52 1   
    51    20    53 1   
    52    21    54 1   
    53    21    55 1   
    54    23    26 ar  
    55    23    56 1   
    56    24    25 ar  
    57    24    26 1   
    58    25    57 1   
    59    26    27 ar  
    60    27    28 ar  
    61    27    58 1   
    62    28    59 1   
    63    32    60 1   
    64    34    61 1   
    65    38    62 1   
    66    39    62 1   
    67    40    62 1   
@<TRIPOS>SUBSTRUCTURE
     1 A1H         1 TEMP              0 ****  ****    0 ROOT
