@<TRIPOS>MOLECULE
A1H
   88    93     1     0     0
SMALL
abcg2


@<TRIPOS>ATOM
      1 C2           4.6540   -17.3510   -12.1050 c          1 A1H       0.655300
      2 O1           4.5740   -18.5030   -12.5210 o          1 A1H      -0.640100
      3 C41          7.4880   -13.2360    -7.3970 ca         1 A1H      -0.072000
      4 C42          7.2010   -11.9010    -7.1760 ca         1 A1H      -0.125000
      5 C43          5.9420   -11.3670    -7.4230 ca         1 A1H      -0.037300
      6 C44          5.7080    -9.9110    -7.1330 c3         1 A1H      -0.054800
      7 C55          3.6000   -11.7160    -8.2590 c3         1 A1H       0.353300
      8 C59          5.2480   -13.5850    -8.1440 ca         1 A1H      -0.043000
      9 C60          6.3510   -16.3130    -9.1180 cc         1 A1H      -0.054000
     10 C11          7.1340   -20.2420   -19.6780 c6         1 A1H       0.153100
     11 C13          6.4540   -22.3380   -18.9600 c6         1 A1H       0.153100
     12 C14          5.8770   -21.7450   -17.6890 c6         1 A1H       0.126300
     13 C16          2.0520   -15.7340   -14.1690 c3         1 A1H      -0.102400
     14 C17          1.2910   -15.2090   -12.9500 c3         1 A1H       0.232800
     15 C21          0.7940   -11.8340   -11.3060 ca         1 A1H      -0.264500
     16 C22         -0.0920   -12.5950   -10.5520 ca         1 A1H      -0.008000
     17 C23         -0.6910   -12.0270    -9.4400 ca         1 A1H      -0.130500
     18 C24         -0.4090   -10.7110    -9.0910 ca         1 A1H      -0.060000
     19 C25          0.4710    -9.9610    -9.8570 ca         1 A1H      -0.130500
     20 C26          1.0800   -10.5200   -10.9720 ca         1 A1H      -0.008000
     21 C28          3.1800   -14.2720   -11.6260 c3         1 A1H       0.204800
     22 C29          4.2390   -14.9290   -12.5040 c3         1 A1H       0.098000
     23 C30          5.4620   -17.1260   -10.8810 cd         1 A1H      -0.029600
     24 N3           3.9970   -16.3450   -12.7270 n          1 A1H      -0.380800
     25 C4           3.1250   -16.7640   -13.8110 c3         1 A1H       0.033700
     26 C5           3.9520   -17.1240   -15.0470 c          1 A1H       0.593100
     27 N6           3.3890   -18.0480   -15.8400 ns         1 A1H      -0.503900
     28 C7           4.0130   -18.5680   -17.0350 c3         1 A1H       0.103000
     29 C8           4.8670   -19.7960   -16.7270 c3         1 A1H       0.137800
     30 N9           5.4520   -20.3750   -17.9180 n3         1 A1H      -0.720600
     31 C10          6.5690   -19.5970   -18.4270 c6         1 A1H       0.126300
     32 O12          7.5330   -21.5730   -19.4470 os         1 A1H      -0.451000
     33 O15          5.0080   -16.5640   -15.2930 o          1 A1H      -0.590100
     34 N18          1.9170   -14.0590   -12.3160 n3         1 A1H      -0.789500
     35 S19          1.5080   -12.5380   -12.7710 sy         1 A1H       1.178600
     36 O20          2.7000   -11.7620   -13.0890 o          1 A1H      -0.551500
     37 O27          0.4590   -12.6430   -13.7750 o          1 A1H      -0.551500
     38 C31          6.1980   -18.1500   -10.3400 cc         1 A1H      -0.216100
     39 N32          6.7640   -17.6330    -9.2150 na         1 A1H       0.134100
     40 C33          7.5920   -18.2360    -8.3140 cc         1 A1H      -0.101000
     41 C34          8.0560   -17.5220    -7.2600 cd         1 A1H      -0.174600
     42 C35          8.9900   -18.1710    -6.2410 c          1 A1H       0.726600
     43 O36          9.4040   -17.4250    -5.3360 o          1 A1H      -0.703000
     44 O37          9.2460   -19.3740    -6.4200 o          1 A1H      -0.703000
     45 C38          7.6650   -16.1640    -7.1330 cd         1 A1H      -0.020000
     46 C39          6.8380   -15.5380    -8.0270 cc         1 A1H      -0.087000
     47 C40          6.5120   -14.1080    -7.8720 ca         1 A1H       0.002000
     48 C54          4.9650   -12.2420    -7.9220 ca         1 A1H      -0.203300
     49 F56          2.7530   -12.6660    -8.6620 f          1 A1H      -0.121000
     50 F57          3.0100   -11.1060    -7.2190 f          1 A1H      -0.121000
     51 F58          3.6640   -10.8110    -9.2480 f          1 A1H      -0.121000
     52 N61          5.5590   -16.0000   -10.1220 nd         1 A1H      -0.327600
     53 H1           8.4920   -13.5940    -7.2110 ha         1 A1H       0.131000
     54 H2           7.9840   -11.2500    -6.8060 ha         1 A1H       0.111000
     55 H3           5.0160    -9.7730    -6.3030 hc         1 A1H       0.046033
     56 H4           6.6450    -9.4340    -6.8550 hc         1 A1H       0.046033
     57 H5           5.3090    -9.3680    -7.9880 hc         1 A1H       0.046033
     58 H6           4.4810   -14.2470    -8.5200 ha         1 A1H       0.143000
     59 H7           8.0130   -19.6900   -20.0150 h1         1 A1H       0.046200
     60 H8           6.3820   -20.1980   -20.4800 h1         1 A1H       0.046200
     61 H9           5.6620   -22.4120   -19.7190 h1         1 A1H       0.046200
     62 H10          6.8270   -23.3450   -18.7670 h1         1 A1H       0.046200
     63 H11          5.0160   -22.3440   -17.3810 h1         1 A1H       0.045200
     64 H12          6.6250   -21.8140   -16.8810 h1         1 A1H       0.045200
     65 H13          2.4570   -14.8980   -14.7430 hc         1 A1H       0.059700
     66 H14          1.3460   -16.2400   -14.8300 hc         1 A1H       0.059700
     67 H15          0.2760   -14.9470   -13.2370 h1         1 A1H       0.062700
     68 H16          1.2000   -15.9900   -12.1900 h1         1 A1H       0.062700
     69 H17         -0.3010   -13.6250   -10.8110 ha         1 A1H       0.129000
     70 H18         -1.3740   -12.6150    -8.8410 ha         1 A1H       0.114000
     71 H19         -0.8750   -10.2730    -8.2180 ha         1 A1H       0.111000
     72 H20          0.6930    -8.9380    -9.5840 ha         1 A1H       0.114000
     73 H21          1.7720    -9.9350   -11.5600 ha         1 A1H       0.129000
     74 H22          3.5630   -13.3200   -11.2630 h1         1 A1H       0.074200
     75 H23          2.9980   -14.8930   -10.7460 h1         1 A1H       0.074200
     76 H24          5.2080   -14.8010   -12.0340 h1         1 A1H       0.080200
     77 H25          4.2930   -14.4220   -13.4680 h1         1 A1H       0.080200
     78 H26          2.5940   -17.6560   -13.4730 h1         1 A1H       0.070700
     79 H27          2.5640   -18.5240   -15.5090 hn         1 A1H       0.309500
     80 H28          4.6010   -17.7730   -17.4920 h1         1 A1H       0.057200
     81 H29          3.2310   -18.8390   -17.7440 h1         1 A1H       0.057200
     82 H30          4.2200   -20.5470   -16.2670 h1         1 A1H       0.047200
     83 H31          5.6320   -19.5380   -15.9770 h1         1 A1H       0.047200
     84 H33          7.3670   -19.4980   -17.6690 h1         1 A1H       0.045200
     85 H34          6.2430   -18.5870   -18.6810 h1         1 A1H       0.045200
     86 H35          6.3620   -19.1690   -10.6460 h4         1 A1H       0.243000
     87 H36          7.8380   -19.2710    -8.4970 h4         1 A1H       0.167000
     88 H38          8.0390   -15.6170    -6.2780 ha         1 A1H       0.146000
@<TRIPOS>BOND
     1     1     2 2   
     2     1    23 1   
     3     1    24 1   
     4     3     4 ar  
     5     3    47 ar  
     6     3    53 1   
     7     4     5 ar  
     8     4    54 1   
     9     5     6 1   
    10     5    48 ar  
    11     6    55 1   
    12     6    56 1   
    13     6    57 1   
    14     7    48 1   
    15     7    49 1   
    16     7    50 1   
    17     7    51 1   
    18     8    47 ar  
    19     8    48 ar  
    20     8    58 1   
    21     9    39 1   
    22     9    46 1   
    23     9    52 2   
    24    10    31 1   
    25    10    32 1   
    26    10    59 1   
    27    10    60 1   
    28    11    12 1   
    29    11    32 1   
    30    11    61 1   
    31    11    62 1   
    32    12    30 1   
    33    12    63 1   
    34    12    64 1   
    35    13    14 1   
    36    13    25 1   
    37    13    65 1   
    38    13    66 1   
    39    14    34 1   
    40    14    67 1   
    41    14    68 1   
    42    15    16 ar  
    43    15    20 ar  
    44    15    35 1   
    45    16    17 ar  
    46    16    69 1   
    47    17    18 ar  
    48    17    70 1   
    49    18    19 ar  
    50    18    71 1   
    51    19    20 ar  
    52    19    72 1   
    53    20    73 1   
    54    21    22 1   
    55    21    34 1   
    56    21    74 1   
    57    21    75 1   
    58    22    24 1   
    59    22    76 1   
    60    22    77 1   
    61    23    38 2   
    62    23    52 1   
    63    24    25 1   
    64    25    26 1   
    65    25    78 1   
    66    26    27 1   
    67    26    33 2   
    68    27    28 1   
    69    27    79 1   
    70    28    29 1   
    71    28    80 1   
    72    28    81 1   
    73    29    30 1   
    74    29    82 1   
    75    29    83 1   
    76    30    31 1   
    77    31    84 1   
    78    31    85 1   
    79    34    35 1   
    80    35    36 2   
    81    35    37 2   
    82    38    39 1   
    83    38    86 1   
    84    39    40 1   
    85    40    41 2   
    86    40    87 1   
    87    41    42 1   
    88    41    45 1   
    89    42    43 1   
    90    42    44 1   
    91    45    46 2   
    92    45    88 1   
    93    46    47 1   
@<TRIPOS>SUBSTRUCTURE
     1 A1H         1 TEMP              0 ****  ****    0 ROOT
