@<TRIPOS>MOLECULE
A1H
   71    75     1     0     0
SMALL
abcg2


@<TRIPOS>ATOM
      1 C10         17.9920    -4.5910   -21.0230 ca         1 A1H      -0.091000
      2 C11         19.3020    -4.3920   -20.6100 ca         1 A1H      -0.109000
      3 C13         18.7920    -2.1000   -20.0990 ca         1 A1H      -0.109000
      4 C19         12.1890    -5.9320   -19.7080 c5         1 A1H      -0.072400
      5 C20         11.5140    -5.9290   -18.3410 c5         1 A1H      -0.082400
      6 C21         11.9770    -4.6110   -17.7270 c5         1 A1H      -0.082400
      7 C22         11.9540    -3.6200   -18.8970 c5         1 A1H      -0.072400
      8 C23         10.8340    -4.3280   -21.0210 c3         1 A1H       0.178600
      9 C25         16.5450    -3.5110   -23.8290 c6         1 A1H      -0.023100
     10 C26         16.0640    -3.1500   -25.2290 c6         1 A1H      -0.060700
     11 C27         14.9180    -4.0770   -25.6170 c6         1 A1H      -0.074400
     12 C28         13.7280    -3.8940   -24.6870 c6         1 A1H      -0.130700
     13 C1          15.6850    -3.7430   -21.4660 cp         1 A1H       0.023000
     14 C2          15.4320    -3.7150   -22.8370 ca         1 A1H      -0.115300
     15 C3          14.1130    -3.9110   -23.2350 ca         1 A1H       0.387300
     16 N4          13.1270    -4.1060   -22.3670 nb         1 A1H      -0.688000
     17 C5          13.3350    -4.1330   -21.0600 ca         1 A1H       0.429300
     18 C6          14.6390    -3.9550   -20.5650 ca         1 A1H      -0.195500
     19 C7          12.1160    -4.4600   -20.2020 c5         1 A1H      -0.100300
     20 C8          15.0230    -4.0210   -19.1460 cc         1 A1H       0.471000
     21 C9          17.0740    -3.5450   -20.9780 cp         1 A1H      -0.070000
     22 C12         19.7060    -3.1450   -20.1500 ca         1 A1H      -0.099000
     23 C14         17.4820    -2.2990   -20.5090 ca         1 A1H      -0.091000
     24 N15         15.5240    -5.1030   -18.5440 na         1 A1H      -0.205700
     25 N16         15.8750    -4.7940   -17.3110 nc         1 A1H      -0.207800
     26 N17         15.5990    -3.5570   -17.1600 nd         1 A1H      -0.048000
     27 N18         15.0770    -3.0430   -18.2730 nd         1 A1H      -0.379000
     28 C29         17.1860    -3.1890   -26.2640 c3         1 A1H      -0.069400
     29 C30         18.3940    -2.2910   -25.9640 c3         1 A1H      -0.073400
     30 C31         19.5480    -2.9930   -25.2520 c3         1 A1H      -0.078400
     31 C32         20.7110    -2.0630   -24.9310 c3         1 A1H      -0.075400
     32 C33         21.8640    -2.7800   -24.2440 c3         1 A1H      -0.089100
     33 C34          9.4360    -2.8000   -22.0970 c3         1 A1H       0.149900
     34 H35         17.6810    -5.5640   -21.3840 ha         1 A1H       0.120000
     35 H36         20.0070    -5.2110   -20.6470 ha         1 A1H       0.117000
     36 H38         19.1000    -1.1260   -19.7400 ha         1 A1H       0.117000
     37 H42         11.7240    -6.6170   -20.4210 hc         1 A1H       0.053950
     38 H41         13.2260    -6.2580   -19.6060 hc         1 A1H       0.053950
     39 H44         10.4270    -5.9360   -18.4520 hc         1 A1H       0.045700
     40 H43         11.7820    -6.8000   -17.7410 hc         1 A1H       0.045700
     41 H46         11.3470    -4.2820   -16.8990 hc         1 A1H       0.045700
     42 H45         12.9850    -4.7280   -17.3240 hc         1 A1H       0.045700
     43 H48         12.6940    -2.8300   -18.7920 hc         1 A1H       0.053950
     44 H47         10.9880    -3.1140   -18.9220 hc         1 A1H       0.053950
     45 H50         10.8820    -4.9530   -21.9210 h1         1 A1H       0.027200
     46 H49          9.9990    -4.7100   -20.4130 h1         1 A1H       0.027200
     47 H52         17.2240    -2.7430   -23.4510 hc         1 A1H       0.058700
     48 H51         17.1380    -4.4320   -23.8790 hc         1 A1H       0.058700
     49 H53         15.6720    -2.1240   -25.1970 hc         1 A1H       0.052700
     50 H55         14.6060    -3.8900   -26.6480 hc         1 A1H       0.044700
     51 H54         15.2670    -5.1150   -25.5800 hc         1 A1H       0.044700
     52 H56         12.9690    -4.6600   -24.8600 hc         1 A1H       0.065700
     53 H57         13.2430    -2.9350   -24.9010 hc         1 A1H       0.065700
     54 H37         20.7280    -2.9890   -19.8310 ha         1 A1H       0.116000
     55 H39         16.7730    -1.4810   -20.4730 ha         1 A1H       0.120000
     56 H40         15.6600    -6.0370   -18.9070 hn         1 A1H       0.385000
     57 H59         17.5230    -4.2260   -26.3900 hc         1 A1H       0.039200
     58 H58         16.7520    -2.9020   -27.2260 hc         1 A1H       0.039200
     59 H61         18.7790    -1.8820   -26.9030 hc         1 A1H       0.039200
     60 H60         18.0710    -1.4240   -25.3780 hc         1 A1H       0.039200
     61 H62         19.2030    -3.4580   -24.3240 hc         1 A1H       0.037700
     62 H63         19.9040    -3.8150   -25.8810 hc         1 A1H       0.037700
     63 H65         21.0670    -1.5920   -25.8530 hc         1 A1H       0.037200
     64 H64         20.3550    -1.2470   -24.2940 hc         1 A1H       0.037200
     65 H66         22.6860    -2.0980   -24.0200 hc         1 A1H       0.031367
     66 H68         21.5430    -3.2300   -23.3020 hc         1 A1H       0.031367
     67 H67         22.2610    -3.5810   -24.8700 hc         1 A1H       0.031367
     68 H69          9.3290    -1.7360   -22.3050 h1         1 A1H       0.025367
     69 H71          9.4600    -3.3380   -23.0530 h1         1 A1H       0.025367
     70 H70          8.5460    -3.1350   -21.5490 h1         1 A1H       0.025367
     71 O24         10.6130    -2.9850   -21.3580 os         1 A1H      -0.445000
@<TRIPOS>BOND
     1     1     2 ar  
     2     1    21 ar  
     3     1    34 1   
     4     2    22 ar  
     5     2    35 1   
     6     3    22 ar  
     7     3    23 ar  
     8     3    36 1   
     9     4     5 1   
    10     4    19 1   
    11     4    37 1   
    12     4    38 1   
    13     5     6 1   
    14     5    39 1   
    15     5    40 1   
    16     6     7 1   
    17     6    41 1   
    18     6    42 1   
    19     7    19 1   
    20     7    43 1   
    21     7    44 1   
    22     8    19 1   
    23     8    45 1   
    24     8    46 1   
    25     8    71 1   
    26     9    10 1   
    27     9    14 1   
    28     9    47 1   
    29     9    48 1   
    30    10    11 1   
    31    10    28 1   
    32    10    49 1   
    33    11    12 1   
    34    11    50 1   
    35    11    51 1   
    36    12    15 1   
    37    12    52 1   
    38    12    53 1   
    39    13    14 ar  
    40    13    18 ar  
    41    13    21 1   
    42    14    15 ar  
    43    15    16 ar  
    44    16    17 ar  
    45    17    18 ar  
    46    17    19 1   
    47    18    20 1   
    48    20    24 1   
    49    20    27 2   
    50    21    23 ar  
    51    22    54 1   
    52    23    55 1   
    53    24    25 1   
    54    24    56 1   
    55    25    26 2   
    56    26    27 1   
    57    28    29 1   
    58    28    57 1   
    59    28    58 1   
    60    29    30 1   
    61    29    59 1   
    62    29    60 1   
    63    30    31 1   
    64    30    61 1   
    65    30    62 1   
    66    31    32 1   
    67    31    63 1   
    68    31    64 1   
    69    32    65 1   
    70    32    66 1   
    71    32    67 1   
    72    33    68 1   
    73    33    69 1   
    74    33    70 1   
    75    33    71 1   
@<TRIPOS>SUBSTRUCTURE
     1 A1H         1 TEMP              0 ****  ****    0 ROOT
