@<TRIPOS>MOLECULE
A1H
   36    38     1     0     0
SMALL
No Charge or Current Charge


@<TRIPOS>ATOM
      1 C2          -6.9150    10.6120    24.4870 c3         1 A1H       0.148800
      2 C3          -6.3290    10.5840    25.9150 c3         1 A1H      -0.074400
      3 C5          -4.6010     8.7560    25.4340 ca         1 A1H      -0.115300
      4 C6          -3.3290     9.3830    25.5370 ca         1 A1H       0.323900
      5 C8          -2.4600     8.0320    23.9070 ca         1 A1H       0.349800
      6 C10         -2.2390     6.5340    22.1430 cc         1 A1H      -0.116100
      7 C12         -3.6560     7.3890    23.7210 ca         1 A1H      -0.098200
      8 C13         -4.7780     7.7230    24.4860 ca         1 A1H      -0.086000
      9 C14         -0.1540     7.9500    22.6980 ca         1 A1H       0.018200
     10 C15          0.6020     8.3720    23.8170 ca         1 A1H      -0.078000
     11 C16          1.9320     8.8030    23.6850 ca         1 A1H      -0.103000
     12 N1          -7.4810    11.9340    24.1610 n8         1 A1H      -0.995200
     13 C4          -5.7580     9.2050    26.3180 c3         1 A1H      -0.027100
     14 N7          -2.2570     9.0420    24.7760 nb         1 A1H      -0.623000
     15 C9          -1.5490     7.4700    22.9180 cd         1 A1H      -0.214000
     16 N11         -3.5400     6.4760    22.6880 na         1 A1H      -0.213700
     17 C17          2.5400     8.8220    22.4250 ca         1 A1H      -0.100000
     18 C18          1.8170     8.4140    21.2960 ca         1 A1H       0.115000
     19 Cl19         2.6200     8.4780    19.7240 cl         1 A1H      -0.183000
     20 C20          0.4770     7.9770    21.4180 ca         1 A1H       0.120000
     21 Cl21        -0.3950     7.5800    19.9260 cl         1 A1H      -0.185000
     22 H26         -7.7080     9.8570    24.3960 h1         1 A1H       0.027700
     23 H27         -6.1280    10.3800    23.7560 h1         1 A1H       0.027700
     24 H28         -5.5390    11.3410    26.0000 hc         1 A1H       0.050200
     25 H29         -7.1120    10.8610    26.6310 hc         1 A1H       0.050200
     26 H32         -3.1690    10.1900    26.2510 h4         1 A1H       0.019100
     27 H33         -1.9300     5.9070    21.3120 h4         1 A1H       0.224000
     28 H34         -5.7350     7.2250    24.3460 ha         1 A1H       0.118000
     29 H35          0.1780     8.3310    24.8150 ha         1 A1H       0.134000
     30 H36          2.4920     9.1120    24.5650 ha         1 A1H       0.121000
     31 H24         -7.9110    11.8930    23.2280 hn         1 A1H       0.391500
     32 H22         -8.2770    12.1200    24.7830 hn         1 A1H       0.391500
     33 H31         -6.5680     8.4640    26.2970 hc         1 A1H       0.047200
     34 H30         -5.4230     9.2560    27.3620 hc         1 A1H       0.047200
     35 H25         -4.2870     5.8700    22.3590 hn         1 A1H       0.355000
     36 H37          3.5690     9.1560    22.3210 ha         1 A1H       0.130000
@<TRIPOS>BOND
     1     1     2 1   
     2     1    12 1   
     3     1    22 1   
     4     1    23 1   
     5     2    13 1   
     6     2    24 1   
     7     2    25 1   
     8     3     4 ar  
     9     3     8 ar  
    10     3    13 1   
    11     4    14 ar  
    12     4    26 1   
    13     5     7 ar  
    14     5    14 ar  
    15     5    15 1   
    16     6    15 2   
    17     6    16 1   
    18     6    27 1   
    19     7     8 ar  
    20     7    16 1   
    21     8    28 1   
    22     9    10 ar  
    23     9    15 1   
    24     9    20 ar  
    25    10    11 ar  
    26    10    29 1   
    27    11    17 ar  
    28    11    30 1   
    29    12    31 1   
    30    12    32 1   
    31    13    33 1   
    32    13    34 1   
    33    16    35 1   
    34    17    18 ar  
    35    17    36 1   
    36    18    19 1   
    37    18    20 ar  
    38    20    21 1   
@<TRIPOS>SUBSTRUCTURE
     1 A1H         1 TEMP              0 ****  ****    0 ROOT
