@<TRIPOS>MOLECULE
A1H
   45    48     1     0     0
SMALL
No Charge or Current Charge


@<TRIPOS>ATOM
      1 C1          -2.8910    10.8020    26.0340 c3         1 A1H      -0.144400
      2 C2          -3.1010     9.5920    25.1340 ca         1 A1H       0.342300
      3 C5          -1.2930     7.7000    22.5610 cc         1 A1H      -0.219000
      4 C6          -1.8790     6.5790    21.9790 cd         1 A1H      -0.115100
      5 C8          -3.3300     7.4480    23.4540 ca         1 A1H      -0.107200
      6 C10         -4.3080     8.8300    25.1490 ca         1 A1H      -0.124300
      7 C11         -5.4790     9.1670    26.0690 c3         1 A1H       0.220100
      8 C13         -7.8780     9.7630    26.2140 c6         1 A1H       0.127300
      9 C14         -9.1490    10.2130    25.4230 c6         1 A1H       0.146800
     10 C16         -7.7230    11.3490    23.7770 c6         1 A1H       0.146800
     11 C19          0.9750     8.2880    23.3430 ca         1 A1H      -0.079000
     12 C21          2.7560     8.8980    21.8060 ca         1 A1H      -0.100000
     13 C22          1.8760     8.7380    20.7230 ca         1 A1H       0.115000
     14 C24          0.5370     8.3470    20.9460 ca         1 A1H       0.120000
     15 N3          -2.0520     9.3000    24.3210 nb         1 A1H      -0.638000
     16 C4          -2.2160     8.2390    23.5120 ca         1 A1H       0.358800
     17 N7          -3.1800     6.4230    22.5240 na         1 A1H      -0.210700
     18 C9          -4.4250     7.7200    24.2790 ca         1 A1H      -0.063000
     19 N12         -6.6770     9.6340    25.3330 n3         1 A1H      -0.724600
     20 N15         -8.9210    11.4730    24.6580 n7         1 A1H      -0.840400
     21 C17         -6.4510    10.8990    24.5670 c6         1 A1H       0.127300
     22 C18          0.0810     8.1130    22.2680 ca         1 A1H       0.020200
     23 C20          2.3060     8.6760    23.1160 ca         1 A1H      -0.104000
     24 Cl25        -0.5670     8.2000    19.5670 cl         1 A1H      -0.185000
     25 H28         -1.9290    11.2940    25.8450 hc         1 A1H       0.048700
     26 H26         -3.6750    11.5500    25.8760 hc         1 A1H       0.048700
     27 H27         -2.9060    10.5100    27.0900 hc         1 A1H       0.048700
     28 H29         -1.4760     5.8900    21.2400 h4         1 A1H       0.224000
     29 H32         -5.7290     8.2550    26.6300 h1         1 A1H       0.041700
     30 H33         -5.1840     9.9130    26.8170 h1         1 A1H       0.041700
     31 H35         -8.0930     8.8030    26.7060 h1         1 A1H       0.036450
     32 H34         -7.6820    10.4950    27.0130 h1         1 A1H       0.036450
     33 H37         -9.9860    10.3490    26.1240 h1         1 A1H       0.058700
     34 H36         -9.4340     9.4100    24.7270 h1         1 A1H       0.058700
     35 H41         -7.5230    12.3110    23.2820 h1         1 A1H       0.058700
     36 H40         -7.9260    10.6110    22.9870 h1         1 A1H       0.058700
     37 H44          0.6350     8.1150    24.3620 ha         1 A1H       0.133000
     38 H46          3.7860     9.1990    21.6280 ha         1 A1H       0.130000
     39 H30         -3.8540     5.6970    22.2960 hn         1 A1H       0.356000
     40 H31         -5.3260     7.1110    24.2520 ha         1 A1H       0.140000
     41 H39         -8.7330    12.2210    25.3370 hn         1 A1H       0.400000
     42 H43         -5.6270    10.7740    23.8500 h1         1 A1H       0.036450
     43 H42         -6.1580    11.7080    25.2530 h1         1 A1H       0.036450
     44 H45          2.9860     8.8030    23.9560 ha         1 A1H       0.121000
     45 Cl23         2.4790     9.0430    19.0920 cl         1 A1H      -0.183000
@<TRIPOS>BOND
     1     1     2 1   
     2     1    25 1   
     3     1    26 1   
     4     1    27 1   
     5     2     6 ar  
     6     2    15 ar  
     7     3     4 2   
     8     3    16 1   
     9     3    22 1   
    10     4    17 1   
    11     4    28 1   
    12     5    16 ar  
    13     5    17 1   
    14     5    18 ar  
    15     6     7 1   
    16     6    18 ar  
    17     7    19 1   
    18     7    29 1   
    19     7    30 1   
    20     8     9 1   
    21     8    19 1   
    22     8    31 1   
    23     8    32 1   
    24     9    20 1   
    25     9    33 1   
    26     9    34 1   
    27    10    20 1   
    28    10    21 1   
    29    10    35 1   
    30    10    36 1   
    31    11    22 ar  
    32    11    23 ar  
    33    11    37 1   
    34    12    13 ar  
    35    12    23 ar  
    36    12    38 1   
    37    13    14 ar  
    38    13    45 1   
    39    14    22 ar  
    40    14    24 1   
    41    15    16 ar  
    42    17    39 1   
    43    18    40 1   
    44    19    21 1   
    45    20    41 1   
    46    21    42 1   
    47    21    43 1   
    48    23    44 1   
@<TRIPOS>SUBSTRUCTURE
     1 A1H         1 TEMP              0 ****  ****    0 ROOT
