@<TRIPOS>MOLECULE
A1H
   45    48     1     0     0
SMALL
No Charge or Current Charge


@<TRIPOS>ATOM
      1 C1           1.9290     7.8830    25.1970 c3         1 A1H       0.068900
      2 C3           2.3250     8.8260    22.8480 cc         1 A1H      -0.138100
      3 C6           0.1730     8.4550    22.0450 ca         1 A1H      -0.092800
      4 C7          -0.9630     8.3350    21.2370 ca         1 A1H      -0.043000
      5 C8          -2.1430     7.8600    21.8390 ca         1 A1H      -0.135000
      6 C10         -1.0110     7.7020    24.0220 ca         1 A1H       0.206000
      7 C16         -4.0590     7.7450    26.5810 c5         1 A1H       0.271100
      8 C19         -7.7000     8.6530    25.6570 ca         1 A1H      -0.080000
      9 C21         -8.5810    10.7090    24.4360 c3         1 A1H       0.194100
     10 C23         -6.1050    10.3510    24.9160 ca         1 A1H      -0.089000
     11 C24         -5.0730     9.5740    25.4650 ca         1 A1H      -0.099300
     12 C25         -3.5940     9.8600    25.4830 c5         1 A1H       0.281100
     13 C26          0.1780     8.1390    23.3840 ca         1 A1H      -0.006200
     14 N2           1.4840     8.3300    23.8660 na         1 A1H      -0.054700
     15 C4           1.5090     8.8890    21.7360 cd         1 A1H       0.029800
     16 Cl5          1.9880     9.4030    20.1510 cl         1 A1H      -0.159000
     17 C9          -2.1630     7.5440    23.2170 ca         1 A1H      -0.117000
     18 S12         -1.3880     8.5660    26.5440 s6         1 A1H       1.281200
     19 O13         -1.1170     7.9620    27.8470 o          1 A1H      -0.542500
     20 O14         -0.7110     9.7950    26.1310 o          1 A1H      -0.542500
     21 N15         -3.0540     8.8480    26.4450 n3         1 A1H      -0.803500
     22 C17         -5.3370     8.3760    26.0910 ca         1 A1H      -0.108300
     23 C18         -6.6480     7.8880    26.2000 ca         1 A1H      -0.095000
     24 C20         -7.4360     9.8860    25.0120 ca         1 A1H      -0.080300
     25 N22         -8.9830    10.2210    23.1030 n8         1 A1H      -0.998200
     26 H32          1.4960     6.9030    25.4300 h1         1 A1H       0.057700
     27 H30          3.0220     7.7940    25.2060 h1         1 A1H       0.057700
     28 H31          1.6290     8.6140    25.9550 h1         1 A1H       0.057700
     29 H33          3.3770     9.0490    22.9850 h4         1 A1H       0.226000
     30 H34         -0.9340     8.5890    20.1790 ha         1 A1H       0.126000
     31 H35         -3.0460     7.7440    21.2430 ha         1 A1H       0.119000
     32 H38         -4.1500     7.4020    27.6210 h1         1 A1H       0.059700
     33 H39         -3.8160     6.8760    25.9550 h1         1 A1H       0.059700
     34 H41         -8.7220     8.2890    25.7320 ha         1 A1H       0.130000
     35 H43         -8.2770    11.7620    24.3520 h1         1 A1H       0.037200
     36 H42         -9.4480    10.6590    25.1090 h1         1 A1H       0.037200
     37 H44         -5.8800    11.2950    24.4250 ha         1 A1H       0.118000
     38 H46         -3.1750     9.7370    24.4750 h1         1 A1H       0.074700
     39 H45         -3.3860    10.8880    25.8110 h1         1 A1H       0.074700
     40 H36         -3.0910     7.1950    23.6620 ha         1 A1H       0.113000
     41 H37         -1.8120     6.7530    25.6230 hn         1 A1H       0.482000
     42 H40         -6.8500     6.9400    26.6940 ha         1 A1H       0.119000
     43 H27         -9.6900    10.8580    22.7160 hn         1 A1H       0.397500
     44 H28         -8.1860    10.3230    22.4640 hn         1 A1H       0.397500
     45 N11         -1.1010     7.4250    25.3860 nu         1 A1H      -0.892100
@<TRIPOS>BOND
     1     1    14 1   
     2     1    26 1   
     3     1    27 1   
     4     1    28 1   
     5     2    14 1   
     6     2    15 2   
     7     2    29 1   
     8     3     4 ar  
     9     3    13 ar  
    10     3    15 1   
    11     4     5 ar  
    12     4    30 1   
    13     5    17 ar  
    14     5    31 1   
    15     6    13 ar  
    16     6    17 ar  
    17     6    45 1   
    18     7    21 1   
    19     7    22 1   
    20     7    32 1   
    21     7    33 1   
    22     8    23 ar  
    23     8    24 ar  
    24     8    34 1   
    25     9    24 1   
    26     9    25 1   
    27     9    35 1   
    28     9    36 1   
    29    10    11 ar  
    30    10    24 ar  
    31    10    37 1   
    32    11    12 1   
    33    11    22 ar  
    34    12    21 1   
    35    12    38 1   
    36    12    39 1   
    37    13    14 1   
    38    15    16 1   
    39    17    40 1   
    40    18    19 2   
    41    18    20 2   
    42    18    21 1   
    43    18    45 1   
    44    22    23 ar  
    45    23    42 1   
    46    25    43 1   
    47    25    44 1   
    48    41    45 1   
@<TRIPOS>SUBSTRUCTURE
     1 A1H         1 TEMP              0 ****  ****    0 ROOT
