@<TRIPOS>MOLECULE
A1H
   58    62     1     0     0
SMALL
No Charge or Current Charge


@<TRIPOS>ATOM
      1 C10         88.7100   -20.2440    34.7980 c          1 A1H       0.715600
      2 C13         87.8890   -17.8310    34.8490 ca         1 A1H      -0.052000
      3 C14         87.3470   -16.6750    34.2340 cp         1 A1H      -0.082000
      4 C15         87.0550   -15.4300    35.0160 cp         1 A1H       0.032000
      5 C16         87.8800   -15.0090    36.0880 ca         1 A1H      -0.140000
      6 C17         87.5940   -13.8330    36.8040 ca         1 A1H      -0.083000
      7 C18         86.4780   -13.0520    36.4550 ca         1 A1H      -0.172000
      8 C19         85.6510   -13.4500    35.3960 ca         1 A1H       0.148100
      9 C3          86.4740   -15.2560    27.9840 c5         1 A1H       0.142300
     10 C21         85.9310   -14.6300    34.6950 ca         1 A1H      -0.208000
     11 C22         87.0650   -16.7330    32.8490 ca         1 A1H      -0.107000
     12 C1          84.8430   -13.9590    29.1070 c5         1 A1H       0.276300
     13 C4          83.6320   -12.1710    30.4230 ca         1 A1H       0.129500
     14 C2          82.9030   -10.0360    30.0540 ca         1 A1H       0.177900
     15 C20         85.0810   -15.9870    27.9290 c5         1 A1H       0.136300
     16 C6          82.7200   -10.8450    32.1880 ca         1 A1H       0.449900
     17 C5          83.2870   -12.0630    31.7490 ca         1 A1H      -0.089600
     18 C8          84.0870   -14.0510    31.5270 cc         1 A1H       0.433700
     19 C23         86.3080   -14.4470    29.3130 c5         1 A1H       0.132300
     20 C24         85.0330   -17.4290    28.5200 c3         1 A1H       0.033600
     21 C11         86.9330   -17.9290    30.6170 c3         1 A1H       0.137900
     22 C7          87.2830   -17.9020    32.1010 ca         1 A1H      -0.133300
     23 C12         87.8190   -19.0380    32.7360 ca         1 A1H      -0.052000
     24 C9          88.1330   -19.0160    34.1150 ca         1 A1H      -0.139600
     25 N9          84.1560   -13.4240    30.2810 na         1 A1H      -0.282300
     26 N3          83.4520   -11.1640    29.5460 nb         1 A1H      -0.216000
     27 N1          82.5270    -9.8240    31.3380 nb         1 A1H      -0.309000
     28 N7          83.5720   -13.2310    32.4670 nd         1 A1H      -0.597100
     29 O3          86.6550   -14.4010    26.8350 oh         1 A1H      -0.690000
     30 O11         88.9010   -21.2500    34.1290 o          1 A1H      -0.713500
     31 O12         88.9670   -20.1840    35.9920 o          1 A1H      -0.713500
     32 O20         84.5770   -12.6910    35.0450 oh         1 A1H      -0.590100
     33 O4          84.1370   -15.1250    28.6280 os         1 A1H      -0.440000
     34 O2          87.2840   -13.3960    29.4880 oh         1 A1H      -0.677000
     35 S1          85.1310   -17.5620    30.3740 ss         1 A1H      -0.438000
     36 H47         88.1030   -17.8080    35.9150 ha         1 A1H       0.138000
     37 H48         88.7570   -15.5920    36.3590 ha         1 A1H       0.126000
     38 H49         88.2400   -13.5230    37.6230 ha         1 A1H       0.102000
     39 H50         86.2610   -12.1390    37.0020 ha         1 A1H       0.110000
     40 H3          87.3030   -15.9730    28.0620 h1         1 A1H       0.064700
     41 H52         85.2640   -14.9480    33.9030 ha         1 A1H       0.114000
     42 H53         86.6690   -15.8550    32.3490 ha         1 A1H       0.084000
     43 H1          84.8210   -13.1770    28.3360 h2         1 A1H       0.113700
     44 H4          84.7540   -16.0680    26.8830 h1         1 A1H       0.057700
     45 H8          84.4340   -15.0660    31.6830 h5         1 A1H       0.098800
     46 H2          86.3560   -15.1250    30.1720 h1         1 A1H       0.069700
     47 H5'2        84.0780   -17.8760    28.2130 h1         1 A1H       0.076700
     48 H5'1        85.8290   -18.0350    28.0670 h1         1 A1H       0.076700
     49 H45         87.1580   -18.9140    30.1880 h1         1 A1H       0.053700
     50 H44         87.5350   -17.1800    30.0890 h1         1 A1H       0.053700
     51 H46         87.9880   -19.9420    32.1540 ha         1 A1H       0.130000
     52 HN61        82.2010    -9.6530    33.7600 hn         1 A1H       0.508000
     53 HN62        82.7110   -11.2460    34.1870 hn         1 A1H       0.508000
     54 HO3         87.0770   -14.9420    26.1280 ho         1 A1H       0.500000
     55 H51         84.2580   -13.0020    34.1560 ho         1 A1H       0.503000
     56 HO2         87.0220   -12.8730    30.2800 ho         1 A1H       0.515000
     57 N6          82.3470   -10.6180    33.4760 nv         1 A1H      -1.060900
     58 H6          82.7500    -9.2120    29.3580 h5         1 A1H       0.042100
@<TRIPOS>BOND
     1     1    24 1   
     2     1    30 1   
     3     1    31 1   
     4     2     3 ar  
     5     2    24 ar  
     6     2    36 1   
     7     3     4 1   
     8     3    11 ar  
     9     4     5 ar  
    10     4    10 ar  
    11     5     6 ar  
    12     5    37 1   
    13     6     7 ar  
    14     6    38 1   
    15     7     8 ar  
    16     7    39 1   
    17     8    10 ar  
    18     8    32 1   
    19     9    15 1   
    20     9    19 1   
    21     9    29 1   
    22     9    40 1   
    23    10    41 1   
    24    11    22 ar  
    25    11    42 1   
    26    12    19 1   
    27    12    25 1   
    28    12    33 1   
    29    12    43 1   
    30    13    17 ar  
    31    13    25 1   
    32    13    26 ar  
    33    14    26 ar  
    34    14    27 ar  
    35    14    58 1   
    36    15    20 1   
    37    15    33 1   
    38    15    44 1   
    39    16    17 ar  
    40    16    27 ar  
    41    16    57 1   
    42    17    28 1   
    43    18    25 1   
    44    18    28 2   
    45    18    45 1   
    46    19    34 1   
    47    19    46 1   
    48    20    35 1   
    49    20    47 1   
    50    20    48 1   
    51    21    22 1   
    52    21    35 1   
    53    21    49 1   
    54    21    50 1   
    55    22    23 ar  
    56    23    24 ar  
    57    23    51 1   
    58    29    54 1   
    59    32    55 1   
    60    34    56 1   
    61    52    57 1   
    62    53    57 1   
@<TRIPOS>SUBSTRUCTURE
     1 A1H         1 TEMP              0 ****  ****    0 ROOT
