@<TRIPOS>MOLECULE
A1H
   46    48     1     0     0
SMALL
abcg2


@<TRIPOS>ATOM
      1 C1         -17.3710   -36.5730    30.8060 c6         1 A1H       0.190500
      2 C2         -17.8900   -36.0110    32.1250 c6         1 A1H       0.144600
      3 C3         -16.6900   -34.0590    31.9190 c6         1 A1H       0.143600
      4 C7         -14.2570   -38.5950    28.6050 c          1 A1H       0.736700
      5 C8         -12.9260   -36.6930    28.6000 c2         1 A1H       0.718200
      6 C9         -13.9370   -35.8780    29.3570 c6         1 A1H      -0.158500
      7 C10        -11.4700   -34.6740    28.5640 c6         1 A1H       0.222800
      8 C11        -10.1750   -34.5430    29.3500 c6         1 A1H      -0.093400
      9 C12         -9.0200   -35.2050    28.6160 c6         1 A1H      -0.076400
     10 C13         -9.3700   -36.6500    28.2850 c6         1 A1H      -0.084400
     11 C14        -10.7290   -36.8370    27.6020 c6         1 A1H       0.164500
     12 C15        -10.7130   -36.5630    26.1030 c3         1 A1H       0.285000
     13 F2          -9.9250   -37.4470    25.4760 f          1 A1H      -0.114667
     14 F          -10.2570   -35.3460    25.7690 f          1 A1H      -0.114667
     15 F1         -11.9330   -36.6690    25.5650 f          1 A1H      -0.114667
     16 N2         -11.7710   -36.0720    28.2650 nh         1 A1H      -0.754600
     17 N1         -13.0910   -37.9290    28.2710 ne         1 A1H      -0.760100
     18 O1         -14.3790   -39.7670    28.2640 o          1 A1H      -0.538100
     19 C6         -15.3070   -37.9150    29.3320 ce         1 A1H      -0.433200
     20 C5         -15.1790   -36.6260    29.7380 c2         1 A1H       0.190800
     21 N          -16.0850   -35.9540    30.4920 nh         1 A1H      -0.672400
     22 C          -18.3730   -36.4200    29.6650 c3         1 A1H      -0.115100
     23 C4         -16.0790   -34.5000    30.6020 c6         1 A1H       0.178800
     24 O          -17.9710   -34.6080    32.1130 os         1 A1H      -0.435000
     25 H1         -17.2000   -37.6350    30.9900 h1         1 A1H       0.075700
     26 H2         -18.8920   -36.4010    32.3120 h1         1 A1H       0.057700
     27 H3         -17.2390   -36.3510    32.9430 h1         1 A1H       0.057700
     28 H4         -16.0210   -34.3410    32.7450 h1         1 A1H       0.054200
     29 H5         -16.7880   -32.9720    31.9220 h1         1 A1H       0.054200
     30 H6         -13.4630   -35.4860    30.2620 hc         1 A1H       0.079700
     31 H7         -14.2100   -35.0080    28.7530 hc         1 A1H       0.079700
     32 H8         -11.4110   -34.1040    27.6340 h1         1 A1H       0.052700
     33 H9         -12.2820   -34.2310    29.1310 h1         1 A1H       0.052700
     34 H10        -10.3070   -35.0050    30.3330 hc         1 A1H       0.051700
     35 H11         -9.9750   -33.4830    29.5170 hc         1 A1H       0.051700
     36 H12         -8.1220   -35.1920    29.2370 hc         1 A1H       0.054200
     37 H13         -8.7760   -34.6420    27.7130 hc         1 A1H       0.054200
     38 H14         -9.4180   -37.2210    29.2160 hc         1 A1H       0.063700
     39 H15         -8.5870   -37.1200    27.6870 hc         1 A1H       0.063700
     40 H16        -11.0090   -37.8870    27.6910 h1         1 A1H       0.136700
     41 H17        -16.1890   -38.5040    29.5400 ha         1 A1H       0.206000
     42 H18        -19.2920   -36.9580    29.9000 hc         1 A1H       0.048367
     43 H19        -18.6340   -35.3760    29.4900 hc         1 A1H       0.048367
     44 H20        -17.9760   -36.8290    28.7360 hc         1 A1H       0.048367
     45 H21        -15.0630   -34.1140    30.5710 h1         1 A1H       0.048200
     46 H22        -16.6250   -34.0490    29.7650 h1         1 A1H       0.048200
@<TRIPOS>BOND
     1     1     2 1   
     2     1    21 1   
     3     1    22 1   
     4     1    25 1   
     5     2    24 1   
     6     2    26 1   
     7     2    27 1   
     8     3    23 1   
     9     3    24 1   
    10     3    28 1   
    11     3    29 1   
    12     4    17 1   
    13     4    18 2   
    14     4    19 1   
    15     5     6 1   
    16     5    16 1   
    17     5    17 2   
    18     6    20 1   
    19     6    30 1   
    20     6    31 1   
    21     7     8 1   
    22     7    16 1   
    23     7    32 1   
    24     7    33 1   
    25     8     9 1   
    26     8    34 1   
    27     8    35 1   
    28     9    10 1   
    29     9    36 1   
    30     9    37 1   
    31    10    11 1   
    32    10    38 1   
    33    10    39 1   
    34    11    12 1   
    35    11    16 1   
    36    11    40 1   
    37    12    13 1   
    38    12    14 1   
    39    12    15 1   
    40    19    20 2   
    41    19    41 1   
    42    20    21 1   
    43    21    23 1   
    44    22    42 1   
    45    22    43 1   
    46    22    44 1   
    47    23    45 1   
    48    23    46 1   
@<TRIPOS>SUBSTRUCTURE
     1 A1H         1 TEMP              0 ****  ****    0 ROOT
