@<TRIPOS>MOLECULE
A1H
   25    27     1     0     0
SMALL
abcg2


@<TRIPOS>ATOM
      1 C1          -2.3080     6.4920    21.7730 cc         1 A1H      -0.142100
      2 C3          -3.6100     7.3380    23.3580 ca         1 A1H      -0.099200
      3 C5          -4.3120     8.5960    25.2120 ca         1 A1H      -0.151000
      4 C6          -3.0020     9.0860    25.3100 ca         1 A1H       0.315900
      5 C8          -2.3130     7.8750    23.5290 ca         1 A1H       0.351800
      6 C10         -0.0630     7.5570    22.2350 ca         1 A1H      -0.005800
      7 C11          0.8020     7.9850    23.2470 ca         1 A1H      -0.100000
      8 C12          2.1530     8.1820    22.9940 ca         1 A1H      -0.113500
      9 C13          2.6750     7.9540    21.7290 ca         1 A1H      -0.113000
     10 C14          1.8250     7.5330    20.7130 ca         1 A1H      -0.113500
     11 C15          0.4750     7.3440    20.9610 ca         1 A1H      -0.100000
     12 N2          -3.5680     6.5030    22.2840 na         1 A1H      -0.214700
     13 C4          -4.6400     7.6990    24.2140 ca         1 A1H      -0.086000
     14 N7          -2.0170     8.7460    24.4970 nb         1 A1H      -0.627000
     15 C9          -1.4830     7.3200    22.4950 cd         1 A1H      -0.193000
     16 H17         -2.0780     5.8680    20.9240 h4         1 A1H       0.217000
     17 H19         -5.0570     8.9270    25.9230 ha         1 A1H       0.121000
     18 H20         -2.7560     9.7910    26.0960 h4         1 A1H       0.018100
     19 H21          0.4150     8.1650    24.2410 ha         1 A1H       0.118000
     20 H22          2.8010     8.5120    23.7960 ha         1 A1H       0.109500
     21 H23          3.7280     8.1070    21.5340 ha         1 A1H       0.110000
     22 H24          2.2140     7.3590    19.7170 ha         1 A1H       0.109500
     23 H25         -0.1690     7.0380    20.1460 ha         1 A1H       0.118000
     24 H16         -4.3400     5.9640    21.9250 hn         1 A1H       0.354000
     25 H18         -5.6420     7.3020    24.1100 ha         1 A1H       0.118000
@<TRIPOS>BOND
     1     1    12 1   
     2     1    15 2   
     3     1    16 1   
     4     2     5 ar  
     5     2    12 1   
     6     2    13 ar  
     7     3     4 ar  
     8     3    13 ar  
     9     3    17 1   
    10     4    14 ar  
    11     4    18 1   
    12     5    14 ar  
    13     5    15 1   
    14     6     7 ar  
    15     6    11 ar  
    16     6    15 1   
    17     7     8 ar  
    18     7    19 1   
    19     8     9 ar  
    20     8    20 1   
    21     9    10 ar  
    22     9    21 1   
    23    10    11 ar  
    24    10    22 1   
    25    11    23 1   
    26    12    24 1   
    27    13    25 1   
@<TRIPOS>SUBSTRUCTURE
     1 A1H         1 TEMP              0 ****  ****    0 ROOT
