@<TRIPOS>MOLECULE
A1H
   54    58     1     0     0
SMALL
No Charge or Current Charge


@<TRIPOS>ATOM
      1 C10         87.5070   -19.9800    34.9570 c          1 A1H       0.716600
      2 C13         87.4950   -17.4290    34.9190 ca         1 A1H      -0.074000
      3 C14         87.4330   -16.1960    34.2360 ca         1 A1H      -0.042200
      4 C16         86.7710   -13.8590    34.6170 cc         1 A1H      -0.225000
      5 C17         87.1430   -12.9520    35.5790 cd         1 A1H       0.205900
      6 C19         88.2480   -14.7570    36.0610 cc         1 A1H       0.401400
      7 C3          86.6490   -14.6140    28.0710 c5         1 A1H       0.142300
      8 C20         87.3210   -16.1910    32.8320 ca         1 A1H      -0.125000
      9 C1          84.6740   -13.6890    29.0020 c5         1 A1H       0.278300
     10 C4          82.7660   -12.4360    30.0850 ca         1 A1H       0.127500
     11 C2          81.3660   -10.7170    29.5220 ca         1 A1H       0.174900
     12 C6          81.1420   -11.6010    31.6210 ca         1 A1H       0.448900
     13 C15         85.4230   -15.5490    27.7560 c5         1 A1H       0.135300
     14 C5          82.1870   -12.5010    31.3280 ca         1 A1H      -0.096600
     15 C8          83.7030   -14.0300    31.3320 cc         1 A1H       0.416700
     16 C18         86.1600   -13.9510    29.4010 c5         1 A1H       0.134300
     17 C21         85.5110   -17.0150    28.2770 c3         1 A1H       0.032600
     18 C7          87.2680   -17.4000    32.1150 ca         1 A1H      -0.116300
     19 C12         87.3280   -18.6240    32.8060 ca         1 A1H      -0.057000
     20 C9          87.4440   -18.6550    34.2150 ca         1 A1H      -0.124600
     21 N15         87.4800   -14.9890    34.9430 na         1 A1H      -0.055300
     22 N18         88.0540   -13.5050    36.4680 nd         1 A1H      -0.697000
     23 N9          83.7320   -13.4010    30.0810 na         1 A1H      -0.290300
     24 N3          82.3730   -11.5450    29.1530 nb         1 A1H      -0.218000
     25 N1          80.7270   -10.6990    30.7170 nb         1 A1H      -0.310000
     26 N7          82.7610   -13.4920    32.1310 nd         1 A1H      -0.558100
     27 O3          86.8490   -13.6510    27.0140 oh         1 A1H      -0.689000
     28 O11         87.6050   -19.9620    36.1770 o          1 A1H      -0.706500
     29 O12         87.4620   -21.0170    34.3100 o          1 A1H      -0.706500
     30 O4          84.2550   -14.8930    28.3210 os         1 A1H      -0.440000
     31 O2          86.9070   -12.7750    29.7820 oh         1 A1H      -0.678000
     32 S1          85.3580   -17.2420    30.1170 ss         1 A1H      -0.426000
     33 H45         87.5710   -17.4380    36.0040 ha         1 A1H       0.147000
     34 H46         86.0850   -13.7840    33.7840 h4         1 A1H       0.163000
     35 H47         86.8040   -11.9280    35.6840 h4         1 A1H       0.023100
     36 H48         88.9030   -15.4990    36.5020 h5         1 A1H       0.061100
     37 H3          87.5670   -15.1960    28.2360 h1         1 A1H       0.060700
     38 H49         87.2830   -15.2490    32.2930 ha         1 A1H       0.096000
     39 H1          84.6300   -12.8430    28.3030 h2         1 A1H       0.112700
     40 H4          85.2820   -15.6120    26.6680 h1         1 A1H       0.057700
     41 H8          84.3710   -14.8440    31.5930 h5         1 A1H       0.097800
     42 H2          86.2040   -14.6780    30.2190 h1         1 A1H       0.064700
     43 H5'2        84.6920   -17.5780    27.8100 h1         1 A1H       0.076700
     44 H5'1        86.4490   -17.4690    27.9290 h1         1 A1H       0.076700
     45 H44         87.2800   -19.5530    32.2430 ha         1 A1H       0.137000
     46 HO3         87.4420   -14.0650    26.3460 ho         1 A1H       0.499000
     47 HO2         86.4130   -12.3250    30.5050 ho         1 A1H       0.516000
     48 N6          80.5040   -11.5800    32.8220 nv         1 A1H      -1.065900
     49 C11         87.1380   -17.3820    30.5990 c3         1 A1H       0.128900
     50 H6          81.0360    -9.9910    28.7810 h5         1 A1H       0.040100
     51 H42         87.5570   -18.3020    30.1710 h1         1 A1H       0.056700
     52 HN61        79.9880   -10.7420    33.0730 hn         1 A1H       0.506000
     53 HN62        80.9410   -12.0940    33.5840 hn         1 A1H       0.506000
     54 H43         87.6980   -16.5310    30.1910 h1         1 A1H       0.056700
@<TRIPOS>BOND
     1     1    20 1   
     2     1    28 1   
     3     1    29 1   
     4     2     3 ar  
     5     2    20 ar  
     6     2    33 1   
     7     3     8 ar  
     8     3    21 1   
     9     4     5 2   
    10     4    21 1   
    11     4    34 1   
    12     5    22 1   
    13     5    35 1   
    14     6    21 1   
    15     6    22 2   
    16     6    36 1   
    17     7    13 1   
    18     7    16 1   
    19     7    27 1   
    20     7    37 1   
    21     8    18 ar  
    22     8    38 1   
    23     9    16 1   
    24     9    23 1   
    25     9    30 1   
    26     9    39 1   
    27    10    14 ar  
    28    10    23 1   
    29    10    24 ar  
    30    11    24 ar  
    31    11    25 ar  
    32    11    50 1   
    33    12    14 ar  
    34    12    25 ar  
    35    12    48 1   
    36    13    17 1   
    37    13    30 1   
    38    13    40 1   
    39    14    26 1   
    40    15    23 1   
    41    15    26 2   
    42    15    41 1   
    43    16    31 1   
    44    16    42 1   
    45    17    32 1   
    46    17    43 1   
    47    17    44 1   
    48    18    19 ar  
    49    18    49 1   
    50    19    20 ar  
    51    19    45 1   
    52    27    46 1   
    53    31    47 1   
    54    32    49 1   
    55    48    52 1   
    56    48    53 1   
    57    49    51 1   
    58    49    54 1   
@<TRIPOS>SUBSTRUCTURE
     1 A1H         1 TEMP              0 ****  ****    0 ROOT
