@<TRIPOS>MOLECULE
A1H
   12    12     1     0     0
SMALL
abcg2


@<TRIPOS>ATOM
      1 C2           2.8960    73.5940    10.2100 ca         1 A1H       0.593900
      2 C5           3.2070    71.7660     8.2730 ca         1 A1H       0.327000
      3 C8           3.7040    73.8060     9.0660 ca         1 A1H       0.333000
      4 N1           2.7130    74.5240    11.1630 nv         1 A1H      -1.054900
      5 N3           2.2640    72.4300    10.3210 nb         1 A1H      -0.723000
      6 C4           2.4060    71.5210     9.3720 ca         1 A1H       0.370900
      7 CL6          3.3960    70.5790     7.0340 cl         1 A1H      -0.144000
      8 N7           3.8470    72.9090     8.1380 nb         1 A1H      -0.591000
      9 CL9          4.5370    75.3080     8.8760 cl         1 A1H      -0.155000
     10 H10          2.2470    74.2400    12.0090 hn         1 A1H       0.499000
     11 H11          3.3300    75.3140    11.2370 hn         1 A1H       0.499000
     12 H12          1.8760    70.5830     9.4890 h4         1 A1H       0.045100
@<TRIPOS>BOND
     1     1     3 ar  
     2     1     4 1   
     3     1     5 ar  
     4     2     6 ar  
     5     2     7 1   
     6     2     8 ar  
     7     3     8 ar  
     8     3     9 1   
     9     4    10 1   
    10     4    11 1   
    11     5     6 ar  
    12     6    12 1   
@<TRIPOS>SUBSTRUCTURE
     1 A1H         1 TEMP              0 ****  ****    0 ROOT
