@<TRIPOS>MOLECULE
A1H
   36    38     1     0     0
SMALL
abcg2


@<TRIPOS>ATOM
      1 C2          -6.9890    10.5220    24.4960 c3         1 A1H       0.148800
      2 C3          -6.3140    10.6220    25.8550 c3         1 A1H      -0.074400
      3 C5          -4.5700     8.8390    25.3980 ca         1 A1H      -0.115300
      4 C6          -3.3070     9.4600    25.4490 ca         1 A1H       0.323900
      5 C8          -2.4560     8.1600    23.8130 ca         1 A1H       0.349800
      6 C10         -2.2630     6.6120    22.2090 cc         1 A1H      -0.116100
      7 C12         -3.6840     7.4800    23.6820 ca         1 A1H      -0.098200
      8 C13         -4.7650     7.8180    24.4830 ca         1 A1H      -0.086000
      9 C14         -0.1450     7.9620    22.6790 ca         1 A1H       0.018200
     10 C15          0.6390     8.1900    23.8140 ca         1 A1H      -0.078000
     11 C16          1.9700     8.5500    23.7180 ca         1 A1H      -0.103000
     12 N1          -7.6530    11.7720    24.1570 n8         1 A1H      -0.995200
     13 C4          -5.6680     9.3110    26.3090 c3         1 A1H      -0.027100
     14 N7          -2.2740     9.1480    24.6910 nb         1 A1H      -0.623000
     15 C9          -1.5490     7.5920    22.8540 cd         1 A1H      -0.214000
     16 N11         -3.5280     6.5460    22.7020 na         1 A1H      -0.213700
     17 C17          2.5680     8.6920    22.4760 ca         1 A1H      -0.100000
     18 C18          1.8110     8.4770    21.3370 ca         1 A1H       0.115000
     19 CL19         2.5610     8.6690    19.7950 cl         1 A1H      -0.183000
     20 C20          0.4670     8.1200    21.4290 ca         1 A1H       0.120000
     21 CL21        -0.4360     7.9090    19.9750 cl         1 A1H      -0.185000
     22 H26         -7.6610     9.6500    24.4990 h1         1 A1H       0.027700
     23 H27         -6.2360    10.3200    23.7300 h1         1 A1H       0.027700
     24 H28         -5.5640    11.4180    25.8290 hc         1 A1H       0.050200
     25 H29         -7.0550    10.9180    26.6040 hc         1 A1H       0.050200
     26 H32         -3.1500    10.2590    26.1690 h4         1 A1H       0.019100
     27 H33         -1.9500     5.9280    21.4380 h4         1 A1H       0.224000
     28 H34         -5.7190     7.3090    24.4050 ha         1 A1H       0.118000
     29 H35          0.1890     8.0680    24.7890 ha         1 A1H       0.134000
     30 H36          2.5530     8.7140    24.6140 ha         1 A1H       0.121000
     31 H24         -8.0600    11.7010    23.2330 hn         1 A1H       0.391500
     32 H22         -8.4320    11.9170    24.7880 hn         1 A1H       0.391500
     33 H31         -6.4370     8.5370    26.3850 hc         1 A1H       0.047200
     34 H30         -5.2700     9.4460    27.3180 hc         1 A1H       0.047200
     35 H25         -4.2310     5.8970    22.3880 hn         1 A1H       0.355000
     36 H37          3.6100     8.9670    22.3890 ha         1 A1H       0.130000
@<TRIPOS>BOND
     1     1     2 1   
     2     1    12 1   
     3     1    22 1   
     4     1    23 1   
     5     2    13 1   
     6     2    24 1   
     7     2    25 1   
     8     3     4 ar  
     9     3     8 ar  
    10     3    13 1   
    11     4    14 ar  
    12     4    26 1   
    13     5     7 ar  
    14     5    14 ar  
    15     5    15 1   
    16     6    15 2   
    17     6    16 1   
    18     6    27 1   
    19     7     8 ar  
    20     7    16 1   
    21     8    28 1   
    22     9    10 ar  
    23     9    15 1   
    24     9    20 ar  
    25    10    11 ar  
    26    10    29 1   
    27    11    17 ar  
    28    11    30 1   
    29    12    31 1   
    30    12    32 1   
    31    13    33 1   
    32    13    34 1   
    33    16    35 1   
    34    17    18 ar  
    35    17    36 1   
    36    18    19 1   
    37    18    20 ar  
    38    20    21 1   
@<TRIPOS>SUBSTRUCTURE
     1 A1H         1 TEMP              0 ****  ****    0 ROOT
