@<TRIPOS>MOLECULE
A1H
   45    48     1     0     0
SMALL
abcg2


@<TRIPOS>ATOM
      1 C1           1.8420     7.7760    24.8400 c3         1 A1H       0.068900
      2 C3           1.7170     8.9680    22.6720 cc         1 A1H      -0.138100
      3 C6          -0.4720     8.8100    22.1900 ca         1 A1H      -0.092800
      4 C7          -1.7550     8.8060    21.6400 ca         1 A1H      -0.043000
      5 C8          -2.7770     8.2150    22.3510 ca         1 A1H      -0.135000
      6 C10         -1.2850     7.6890    24.1980 ca         1 A1H       0.206000
      7 C16         -4.0110     7.8100    26.9750 c5         1 A1H       0.271100
      8 C19         -7.2970     8.6240    25.1980 ca         1 A1H      -0.080000
      9 C21         -7.9000    10.5940    23.7460 c3         1 A1H       0.194100
     10 C23         -5.6390    10.3230    24.8190 ca         1 A1H      -0.089000
     11 C24         -4.7560     9.6040    25.6100 ca         1 A1H      -0.099300
     12 C25         -3.3370     9.9400    25.9470 c5         1 A1H       0.281100
     13 C26         -0.2280     8.2390    23.4620 ca         1 A1H      -0.006200
     14 N2           1.1090     8.3420    23.7260 na         1 A1H      -0.054700
     15 C4           0.7880     9.2740    21.7260 cd         1 A1H       0.029800
     16 CL5          1.0690    10.0660    20.2320 cl         1 A1H      -0.159000
     17 C9          -2.5410     7.6650    23.6170 ca         1 A1H      -0.117000
     18 S12         -1.3730     8.2630    26.7670 s6         1 A1H       1.281200
     19 O13         -1.1940     7.4730    27.9660 o          1 A1H      -0.542500
     20 O14         -0.5730     9.4430    26.5060 o          1 A1H      -0.542500
     21 N15         -2.9220     8.7610    26.7230 n3         1 A1H      -0.803500
     22 C17         -5.1360     8.4070    26.1880 ca         1 A1H      -0.108300
     23 C18         -6.4150     7.9070    25.9910 ca         1 A1H      -0.095000
     24 C20         -6.9240     9.8350    24.6080 ca         1 A1H      -0.080300
     25 N22         -8.4510     9.7420    22.7020 n8         1 A1H      -0.998200
     26 H32          1.6840     6.7020    24.9050 h1         1 A1H       0.057700
     27 H30          2.9010     7.9590    24.6770 h1         1 A1H       0.057700
     28 H31          1.5520     8.2360    25.7800 h1         1 A1H       0.057700
     29 H33          2.7820     9.1430    22.6740 h4         1 A1H       0.226000
     30 H34         -1.9360     9.2480    20.6680 ha         1 A1H       0.126000
     31 H35         -3.7770     8.1840    21.9400 ha         1 A1H       0.119000
     32 H38         -4.2370     7.7420    28.0420 h1         1 A1H       0.059700
     33 H39         -3.7690     6.8010    26.6270 h1         1 A1H       0.059700
     34 H41         -8.2930     8.2380    25.0250 ha         1 A1H       0.130000
     35 H43         -7.4070    11.5000    23.3700 h1         1 A1H       0.037200
     36 H42         -8.7320    10.9370    24.3680 h1         1 A1H       0.037200
     37 H44         -5.3320    11.2550    24.3580 ha         1 A1H       0.118000
     38 H46         -2.7310    10.0850    25.0520 h1         1 A1H       0.074700
     39 H45         -3.2630    10.8480    26.5520 h1         1 A1H       0.074700
     40 H36         -3.3640     7.2190    24.1620 ha         1 A1H       0.113000
     41 H37         -1.4550     6.2760    25.6980 hn         1 A1H       0.482000
     42 H40         -6.7200     6.9700    26.4400 ha         1 A1H       0.119000
     43 H27         -9.1660    10.2510    22.1990 hn         1 A1H       0.397500
     44 H28         -7.7290     9.5300    22.0260 hn         1 A1H       0.397500
     45 N11         -1.0680     7.1980    25.5140 nu         1 A1H      -0.892100
@<TRIPOS>BOND
     1     1    14 1   
     2     1    26 1   
     3     1    27 1   
     4     1    28 1   
     5     2    14 1   
     6     2    15 2   
     7     2    29 1   
     8     3     4 ar  
     9     3    13 ar  
    10     3    15 1   
    11     4     5 ar  
    12     4    30 1   
    13     5    17 ar  
    14     5    31 1   
    15     6    13 ar  
    16     6    17 ar  
    17     6    45 1   
    18     7    21 1   
    19     7    22 1   
    20     7    32 1   
    21     7    33 1   
    22     8    23 ar  
    23     8    24 ar  
    24     8    34 1   
    25     9    24 1   
    26     9    25 1   
    27     9    35 1   
    28     9    36 1   
    29    10    11 ar  
    30    10    24 ar  
    31    10    37 1   
    32    11    12 1   
    33    11    22 ar  
    34    12    21 1   
    35    12    38 1   
    36    12    39 1   
    37    13    14 1   
    38    15    16 1   
    39    17    40 1   
    40    18    19 2   
    41    18    20 2   
    42    18    21 1   
    43    18    45 1   
    44    22    23 ar  
    45    23    42 1   
    46    25    43 1   
    47    25    44 1   
    48    41    45 1   
@<TRIPOS>SUBSTRUCTURE
     1 A1H         1 TEMP              0 ****  ****    0 ROOT
