@<TRIPOS>MOLECULE
A1H
   58    62     1     0     0
SMALL
abcg2


@<TRIPOS>ATOM
      1 C10         88.8640   -20.1680    34.7150 c          1 A1H       0.715600
      2 C13         87.9510   -17.8080    34.8120 ca         1 A1H      -0.052000
      3 C14         87.3830   -16.6740    34.2340 cp         1 A1H      -0.082000
      4 C15         87.0010   -15.5010    35.0470 cp         1 A1H       0.032000
      5 C16         87.7630   -15.0750    36.1330 ca         1 A1H      -0.140000
      6 C17         87.3480   -13.9770    36.8740 ca         1 A1H      -0.083000
      7 C18         86.1920   -13.2830    36.5500 ca         1 A1H      -0.172000
      8 C19         85.4250   -13.6980    35.4610 ca         1 A1H       0.148100
      9 C3          86.3690   -15.3330    28.0390 c5         1 A1H       0.142300
     10 C21         85.8310   -14.8120    34.7300 ca         1 A1H      -0.208000
     11 C22         87.1410   -16.6780    32.8640 ca         1 A1H      -0.107000
     12 C1          84.7580   -13.9690    29.0640 c5         1 A1H       0.276300
     13 C4          83.7450   -12.1140    30.4050 ca         1 A1H       0.129500
     14 C2          83.1430   -10.0530    29.9580 ca         1 A1H       0.177900
     15 C20         85.0010   -16.0410    28.0720 c5         1 A1H       0.136300
     16 C6          82.9620   -10.7140    32.1560 ca         1 A1H       0.449900
     17 C5          83.4460   -11.9740    31.7510 ca         1 A1H      -0.089600
     18 C8          84.1530   -13.9610    31.5060 cc         1 A1H       0.433700
     19 C23         86.2370   -14.3520    29.1930 c5         1 A1H       0.132300
     20 C24         84.9640   -17.4270    28.7000 c3         1 A1H       0.033600
     21 C11         87.0690   -17.7750    30.6240 c3         1 A1H       0.137900
     22 C7          87.4030   -17.8020    32.0880 ca         1 A1H      -0.133300
     23 C12         87.9480   -18.9280    32.6930 ca         1 A1H      -0.052000
     24 C9          88.2460   -18.9360    34.0550 ca         1 A1H      -0.139600
     25 N9          84.2020   -13.3970    30.2650 na         1 A1H      -0.282300
     26 N3          83.6140   -11.1850    29.4640 nb         1 A1H      -0.216000
     27 N1          82.8210    -9.7730    31.2160 nb         1 A1H      -0.309000
     28 N7          83.7060   -13.1470    32.4190 nd         1 A1H      -0.597100
     29 O3          86.5490   -14.5860    26.8640 oh         1 A1H      -0.690000
     30 O11         89.0660   -21.1520    33.9780 o          1 A1H      -0.713500
     31 O12         89.1130   -20.0760    35.9320 o          1 A1H      -0.713500
     32 O20         84.2990   -13.0280    35.1630 oh         1 A1H      -0.590100
     33 O4          84.1030   -15.1660    28.7590 os         1 A1H      -0.440000
     34 O2          87.1210   -13.2830    29.1050 oh         1 A1H      -0.677000
     35 S1          85.2620   -17.5290    30.4850 ss         1 A1H      -0.438000
     36 H47         88.1440   -17.8310    35.8770 ha         1 A1H       0.138000
     37 H48         88.6830   -15.5840    36.3900 ha         1 A1H       0.126000
     38 H49         87.9430   -13.6460    37.7160 ha         1 A1H       0.102000
     39 H50         85.8830   -12.4230    37.1310 ha         1 A1H       0.110000
     40 H3          87.1910   -16.0440    28.1860 h1         1 A1H       0.064700
     41 H52         85.2050   -15.1760    33.9250 ha         1 A1H       0.114000
     42 H53         86.7440   -15.7890    32.3880 ha         1 A1H       0.084000
     43 H1          84.6280   -13.2120    28.2830 h2         1 A1H       0.113700
     44 H4          84.6500   -16.1670    27.0400 h1         1 A1H       0.057700
     45 H8          84.4500   -14.9870    31.6720 h5         1 A1H       0.098800
     46 H2          86.3610   -14.9170    30.1270 h1         1 A1H       0.069700
     47 H5'2        83.9670   -17.8480    28.5550 h1         1 A1H       0.076700
     48 H5'1        85.6570   -18.0860    28.1730 h1         1 A1H       0.076700
     49 H45         87.3490   -18.7080    30.1350 h1         1 A1H       0.053700
     50 H44         87.5950   -16.9590    30.1270 h1         1 A1H       0.053700
     51 H46         88.1510   -19.8100    32.0990 ha         1 A1H       0.130000
     52 HN61        82.3590    -9.4820    33.6500 hn         1 A1H       0.508000
     53 HN62        82.8240   -11.0530    34.1720 hn         1 A1H       0.508000
     54 HO3         86.6320   -15.1950    26.1230 ho         1 A1H       0.500000
     55 H51         84.0040   -13.2320    34.2460 ho         1 A1H       0.503000
     56 HO2         87.1560   -12.8430    29.9610 ho         1 A1H       0.515000
     57 N6          82.6300   -10.4220    33.4150 nv         1 A1H      -1.060900
     58 H6          83.0010    -9.2440    29.2490 h5         1 A1H       0.042100
@<TRIPOS>BOND
     1     1    24 1   
     2     1    30 1   
     3     1    31 1   
     4     2     3 ar  
     5     2    24 ar  
     6     2    36 1   
     7     3     4 1   
     8     3    11 ar  
     9     4     5 ar  
    10     4    10 ar  
    11     5     6 ar  
    12     5    37 1   
    13     6     7 ar  
    14     6    38 1   
    15     7     8 ar  
    16     7    39 1   
    17     8    10 ar  
    18     8    32 1   
    19     9    15 1   
    20     9    19 1   
    21     9    29 1   
    22     9    40 1   
    23    10    41 1   
    24    11    22 ar  
    25    11    42 1   
    26    12    19 1   
    27    12    25 1   
    28    12    33 1   
    29    12    43 1   
    30    13    17 ar  
    31    13    25 1   
    32    13    26 ar  
    33    14    26 ar  
    34    14    27 ar  
    35    14    58 1   
    36    15    20 1   
    37    15    33 1   
    38    15    44 1   
    39    16    17 ar  
    40    16    27 ar  
    41    16    57 1   
    42    17    28 1   
    43    18    25 1   
    44    18    28 2   
    45    18    45 1   
    46    19    34 1   
    47    19    46 1   
    48    20    35 1   
    49    20    47 1   
    50    20    48 1   
    51    21    22 1   
    52    21    35 1   
    53    21    49 1   
    54    21    50 1   
    55    22    23 ar  
    56    23    24 ar  
    57    23    51 1   
    58    29    54 1   
    59    32    55 1   
    60    34    56 1   
    61    52    57 1   
    62    53    57 1   
@<TRIPOS>SUBSTRUCTURE
     1 A1H         1 TEMP              0 ****  ****    0 ROOT
