@<TRIPOS>MOLECULE
A1H
   25    27     1     0     0
SMALL
No Charge or Current Charge


@<TRIPOS>ATOM
      1 C1          -2.3360     6.5640    21.6270 cc         1 A1H      -0.142100
      2 C3          -3.6000     7.3690    23.3520 ca         1 A1H      -0.099200
      3 C5          -4.3240     8.5350    25.2980 ca         1 A1H      -0.151000
      4 C6          -2.9880     8.9790    25.4560 ca         1 A1H       0.315900
      5 C8          -2.3280     7.8300    23.5830 ca         1 A1H       0.351800
      6 C10         -0.0640     7.5500    22.2470 ca         1 A1H      -0.005800
      7 C11          0.7840     8.1580    23.2040 ca         1 A1H      -0.100000
      8 C12          2.1490     8.3670    22.9380 ca         1 A1H      -0.113500
      9 C13          2.6990     7.9710    21.7110 ca         1 A1H      -0.113000
     10 C14          1.8810     7.3600    20.7520 ca         1 A1H      -0.113500
     11 C15          0.5160     7.1500    21.0180 ca         1 A1H      -0.100000
     12 N2          -3.6240     6.6060    22.1990 na         1 A1H      -0.214700
     13 C4          -4.6550     7.7030    24.2090 ca         1 A1H      -0.086000
     14 N7          -1.9840     8.6400    24.6050 nb         1 A1H      -0.627000
     15 C9          -1.5160     7.3040    22.4860 cd         1 A1H      -0.193000
     16 H17         -2.1280     6.0270    20.7060 h4         1 A1H       0.217000
     17 H19         -5.0840     8.8430    26.0100 ha         1 A1H       0.121000
     18 H20         -2.7170     9.6270    26.2880 h4         1 A1H       0.018100
     19 H21          0.4160     8.4630    24.1750 ha         1 A1H       0.118000
     20 H22          2.7820     8.8340    23.6890 ha         1 A1H       0.109500
     21 H23          3.7550     8.1330    21.5060 ha         1 A1H       0.110000
     22 H24          2.3010     7.0480    19.7990 ha         1 A1H       0.109500
     23 H25         -0.0850     6.6800    20.2460 ha         1 A1H       0.118000
     24 H16         -4.4510     6.1530    21.8180 hn         1 A1H       0.354000
     25 H18         -5.6710     7.3500    24.0420 ha         1 A1H       0.118000
@<TRIPOS>BOND
     1     1    12 1   
     2     1    15 2   
     3     1    16 1   
     4     2     5 ar  
     5     2    12 1   
     6     2    13 ar  
     7     3     4 ar  
     8     3    13 ar  
     9     3    17 1   
    10     4    14 ar  
    11     4    18 1   
    12     5    14 ar  
    13     5    15 1   
    14     6     7 ar  
    15     6    11 ar  
    16     6    15 1   
    17     7     8 ar  
    18     7    19 1   
    19     8     9 ar  
    20     8    20 1   
    21     9    10 ar  
    22     9    21 1   
    23    10    11 ar  
    24    10    22 1   
    25    11    23 1   
    26    12    24 1   
    27    13    25 1   
@<TRIPOS>SUBSTRUCTURE
     1 A1H         1 TEMP              0 ****  ****    0 ROOT
