@<TRIPOS>MOLECULE
A1H
   71    75     1     0     0
SMALL
No Charge or Current Charge


@<TRIPOS>ATOM
      1 C10         18.0520    -4.6750   -21.0880 ca         1 A1H      -0.091000
      2 C11         19.3810    -4.5240   -20.6590 ca         1 A1H      -0.109000
      3 C13         18.8840    -2.2580   -19.9260 ca         1 A1H      -0.109000
      4 C19         12.2000    -5.9110   -19.5930 c5         1 A1H      -0.072400
      5 C20         11.4000    -5.8410   -18.2690 c5         1 A1H      -0.082400
      6 C21         11.9610    -4.5280   -17.6740 c5         1 A1H      -0.082400
      7 C22         11.9080    -3.5500   -18.8900 c5         1 A1H      -0.072400
      8 C23         10.6820    -4.3760   -20.9990 c3         1 A1H       0.178600
      9 C25         16.5640    -3.5210   -23.8430 c6         1 A1H      -0.023100
     10 C26         16.0780    -3.1640   -25.2700 c6         1 A1H      -0.060700
     11 C27         14.9050    -4.0910   -25.6670 c6         1 A1H      -0.074400
     12 C28         13.7140    -3.9140   -24.6980 c6         1 A1H      -0.130700
     13 C1          15.7140    -3.7770   -21.4260 cp         1 A1H       0.023000
     14 C2          15.4460    -3.7400   -22.8100 ca         1 A1H      -0.115300
     15 C3          14.1210    -3.9360   -23.2250 ca         1 A1H       0.387300
     16 N4          13.1080    -4.1430   -22.3690 nb         1 A1H      -0.688000
     17 C5          13.3070    -4.1560   -21.0260 ca         1 A1H       0.429300
     18 C6          14.6370    -3.9790   -20.5170 ca         1 A1H      -0.195500
     19 C7          12.0160    -4.4650   -20.1770 c5         1 A1H      -0.100300
     20 C8          14.9640    -4.0790   -19.0990 cc         1 A1H       0.471000
     21 C9          17.1180    -3.6220   -20.9420 cp         1 A1H      -0.070000
     22 C12         19.7970    -3.3140   -20.0770 ca         1 A1H      -0.099000
     23 C14         17.5550    -2.4110   -20.3580 ca         1 A1H      -0.091000
     24 N15         15.5380    -5.1700   -18.5120 na         1 A1H      -0.205700
     25 N16         15.9580    -4.8710   -17.2570 nc         1 A1H      -0.207800
     26 N17         15.6790    -3.6040   -17.1170 nd         1 A1H      -0.048000
     27 N18         15.1200    -3.0770   -18.2580 nd         1 A1H      -0.379000
     28 C29         17.2190    -3.2150   -26.3390 c3         1 A1H      -0.069400
     29 C30         18.4390    -2.2840   -26.1000 c3         1 A1H      -0.073400
     30 C31         19.6000    -2.9200   -25.2930 c3         1 A1H      -0.078400
     31 C32         20.7720    -1.9450   -25.0510 c3         1 A1H      -0.075400
     32 C33         21.9110    -2.5690   -24.2210 c3         1 A1H      -0.089100
     33 C34          9.2700    -2.8110   -22.1860 c3         1 A1H       0.149900
     34 H35         17.7390    -5.6130   -21.5420 ha         1 A1H       0.120000
     35 H36         20.0880    -5.3410   -20.7790 ha         1 A1H       0.117000
     36 H38         19.2050    -1.3200   -19.4780 ha         1 A1H       0.117000
     37 H42         11.8100    -6.6830   -20.2670 hc         1 A1H       0.053950
     38 H41         13.2420    -6.1780   -19.4040 hc         1 A1H       0.053950
     39 H44         10.3180    -5.7890   -18.4320 hc         1 A1H       0.045700
     40 H43         11.5910    -6.7040   -17.6210 hc         1 A1H       0.045700
     41 H46         11.3610    -4.1680   -16.8310 hc         1 A1H       0.045700
     42 H45         12.9760    -4.6710   -17.2950 hc         1 A1H       0.045700
     43 H48         12.6470    -2.7470   -18.8440 hc         1 A1H       0.053950
     44 H47         10.9470    -3.0230   -18.8650 hc         1 A1H       0.053950
     45 H50         10.7320    -5.0390   -21.8740 h1         1 A1H       0.027200
     46 H49          9.8460    -4.7230   -20.3780 h1         1 A1H       0.027200
     47 H52         17.2200    -2.7170   -23.4840 hc         1 A1H       0.058700
     48 H51         17.1760    -4.4320   -23.8870 hc         1 A1H       0.058700
     49 H53         15.7090    -2.1280   -25.2610 hc         1 A1H       0.052700
     50 H55         14.5760    -3.8780   -26.6940 hc         1 A1H       0.044700
     51 H54         15.2390    -5.1380   -25.6560 hc         1 A1H       0.044700
     52 H56         12.9680    -4.6950   -24.8940 hc         1 A1H       0.065700
     53 H57         13.2170    -2.9570   -24.9060 hc         1 A1H       0.065700
     54 H37         20.8270    -3.1960   -19.7450 ha         1 A1H       0.116000
     55 H39         16.8560    -1.5850   -20.2440 ha         1 A1H       0.120000
     56 H40         15.6710    -6.0830   -18.9270 hn         1 A1H       0.385000
     57 H59         17.5760    -4.2450   -26.4630 hc         1 A1H       0.039200
     58 H58         16.7880    -2.9380   -27.3090 hc         1 A1H       0.039200
     59 H61         18.8360    -1.9820   -27.0770 hc         1 A1H       0.039200
     60 H60         18.1040    -1.3620   -25.6080 hc         1 A1H       0.039200
     61 H62         19.2430    -3.2790   -24.3230 hc         1 A1H       0.037700
     62 H63         19.9710    -3.7990   -25.8340 hc         1 A1H       0.037700
     63 H65         21.1730    -1.6100   -26.0150 hc         1 A1H       0.037200
     64 H64         20.4010    -1.0540   -24.5300 hc         1 A1H       0.037200
     65 H66         22.7190    -1.8430   -24.0750 hc         1 A1H       0.031367
     66 H68         21.5460    -2.8800   -23.2340 hc         1 A1H       0.031367
     67 H67         22.3260    -3.4470   -24.7300 hc         1 A1H       0.031367
     68 H69          9.1610    -1.7520   -22.4500 h1         1 A1H       0.025367
     69 H71          9.3200    -3.3920   -23.1160 h1         1 A1H       0.025367
     70 H70          8.3750    -3.1200   -21.6300 h1         1 A1H       0.025367
     71 O24         10.4530    -3.0090   -21.3980 os         1 A1H      -0.445000
@<TRIPOS>BOND
     1     1     2 ar  
     2     1    21 ar  
     3     1    34 1   
     4     2    22 ar  
     5     2    35 1   
     6     3    22 ar  
     7     3    23 ar  
     8     3    36 1   
     9     4     5 1   
    10     4    19 1   
    11     4    37 1   
    12     4    38 1   
    13     5     6 1   
    14     5    39 1   
    15     5    40 1   
    16     6     7 1   
    17     6    41 1   
    18     6    42 1   
    19     7    19 1   
    20     7    43 1   
    21     7    44 1   
    22     8    19 1   
    23     8    45 1   
    24     8    46 1   
    25     8    71 1   
    26     9    10 1   
    27     9    14 1   
    28     9    47 1   
    29     9    48 1   
    30    10    11 1   
    31    10    28 1   
    32    10    49 1   
    33    11    12 1   
    34    11    50 1   
    35    11    51 1   
    36    12    15 1   
    37    12    52 1   
    38    12    53 1   
    39    13    14 ar  
    40    13    18 ar  
    41    13    21 1   
    42    14    15 ar  
    43    15    16 ar  
    44    16    17 ar  
    45    17    18 ar  
    46    17    19 1   
    47    18    20 1   
    48    20    24 1   
    49    20    27 2   
    50    21    23 ar  
    51    22    54 1   
    52    23    55 1   
    53    24    25 1   
    54    24    56 1   
    55    25    26 2   
    56    26    27 1   
    57    28    29 1   
    58    28    57 1   
    59    28    58 1   
    60    29    30 1   
    61    29    59 1   
    62    29    60 1   
    63    30    31 1   
    64    30    61 1   
    65    30    62 1   
    66    31    32 1   
    67    31    63 1   
    68    31    64 1   
    69    32    65 1   
    70    32    66 1   
    71    32    67 1   
    72    33    68 1   
    73    33    69 1   
    74    33    70 1   
    75    33    71 1   
@<TRIPOS>SUBSTRUCTURE
     1 A1H         1 TEMP              0 ****  ****    0 ROOT
