@<TRIPOS>MOLECULE
A1H
   17    18     1     0     0
SMALL
abcg2


@<TRIPOS>ATOM
      1 C2          -6.9220     8.9700    12.4910 ca         1 A1H       0.329000
      2 C3          -6.0100     9.5630    11.6170 ca         1 A1H      -0.245000
      3 C6          -6.6810     7.0150    11.0410 ca         1 A1H       0.367800
      4 C7          -7.2210     5.6940    10.9960 cc         1 A1H      -0.356800
      5 C8          -8.0740     5.5850    12.0590 cd         1 A1H      -0.156100
      6 C10         -7.2540     7.6480    12.1620 ca         1 A1H      -0.152200
      7 N1          -7.4870     9.6390    13.5380 nv         1 A1H      -1.083000
      8 C4          -5.5010     8.8530    10.5260 ca         1 A1H       0.352900
      9 N5          -5.8040     7.6070    10.2140 nb         1 A1H      -0.652000
     10 N9          -8.0980     6.7520    12.7590 na         1 A1H      -0.219700
     11 H15         -5.6870    10.5830    11.7830 ha         1 A1H       0.117000
     12 H17         -7.0030     4.9290    10.2690 ha         1 A1H       0.216000
     13 H18         -8.6780     4.7490    12.3730 h4         1 A1H       0.212000
     14 H13         -7.8170     9.0990    14.3210 hn         1 A1H       0.455000
     15 H14         -7.0240    10.4870    13.8250 hn         1 A1H       0.455000
     16 H16         -4.7940     9.3550     9.8730 h4         1 A1H       0.013100
     17 H1          -8.6600     6.9120    13.5780 hn         1 A1H       0.346000
@<TRIPOS>BOND
     1     1     2 ar  
     2     1     6 ar  
     3     1     7 1   
     4     2     8 ar  
     5     2    11 1   
     6     3     4 1   
     7     3     6 ar  
     8     3     9 ar  
     9     4     5 2   
    10     4    12 1   
    11     5    10 1   
    12     5    13 1   
    13     6    10 1   
    14     7    14 1   
    15     7    15 1   
    16     8     9 ar  
    17     8    16 1   
    18    10    17 1   
@<TRIPOS>SUBSTRUCTURE
     1 A1H         1 TEMP              0 ****  ****    0 ROOT
