@<TRIPOS>MOLECULE
A1H
   88    91     1     0     0
SMALL
abcg2


@<TRIPOS>ATOM
      1 C15         54.6300   -12.2430    52.2620 c3         1 A1H       0.211100
      2 C16         55.2140   -14.5720    51.8030 c3         1 A1H       0.170800
      3 C17         55.8310   -14.4570    50.4150 c3         1 A1H      -0.078400
      4 C18         55.6490   -15.7270    49.5970 c3         1 A1H       0.208800
      5 C19         56.4840   -19.1860    51.4410 c3         1 A1H      -0.342100
      6 C20         54.6620   -10.6130    50.3300 ca         1 A1H      -0.089000
      7 C21         55.3400    -9.7070    49.5300 ca         1 A1H      -0.102000
      8 C22         59.6710    -7.0930    47.4520 ca         1 A1H      -0.128000
      9 C23         60.7120    -6.3330    46.9440 ca         1 A1H      -0.092000
     10 C24         61.8490    -6.1090    47.6980 ca         1 A1H      -0.121000
     11 C25         63.4380    -5.2470    50.4730 ca         1 A1H      -0.085300
     12 C26         62.3830    -4.1880    50.6140 c3         1 A1H      -0.049800
     13 C27         65.9400    -1.8500    52.5630 ca         1 A1H       0.292500
     14 C28         67.1580    -0.3250    53.7370 ca         1 A1H       0.360900
     15 O1          66.9540    -3.3610    51.0440 o          1 A1H      -0.542100
     16 C1          65.9920    -3.1090    51.7420 c          1 A1H       0.514600
     17 C2          64.6800    -5.0800    51.1020 ca         1 A1H      -0.042000
     18 C3          65.6700    -6.0510    51.0080 ca         1 A1H      -0.099000
     19 C4          65.4390    -7.1970    50.2650 ca         1 A1H      -0.101000
     20 C5          64.2220    -7.3740    49.6280 ca         1 A1H      -0.106000
     21 C6          63.2200    -6.4130    49.7310 cp         1 A1H      -0.026000
     22 C7          61.9530    -6.6390    48.9830 cp         1 A1H      -0.019000
     23 C8          60.9070    -7.3880    49.5260 ca         1 A1H      -0.105300
     24 C9          60.9800    -7.9340    50.9240 c3         1 A1H      -0.052800
     25 C10         59.7630    -7.6220    48.7380 ca         1 A1H      -0.021000
     26 N2          58.7570    -8.4220    49.2910 ns         1 A1H      -0.135000
     27 C11         57.4600    -8.5300    48.9270 c          1 A1H       0.513600
     28 C12         56.6910    -9.5080    49.7670 ca         1 A1H       0.278500
     29 N3          57.3530   -10.1560    50.7200 nb         1 A1H      -0.685000
     30 C13         56.7010   -11.0240    51.4740 ca         1 A1H       0.358900
     31 C14         55.3400   -11.2940    51.3310 ca         1 A1H      -0.113300
     32 N4          55.4250   -13.3960    52.6290 n7         1 A1H      -0.880400
     33 N5          56.3760   -16.8360    50.2210 n7         1 A1H      -0.895300
     34 S1          55.8930   -18.3980    49.9640 s6         1 A1H       1.182100
     35 O2          54.4350   -18.3990    49.9660 o          1 A1H      -0.541000
     36 O3          56.5720   -19.0150    48.8310 o          1 A1H      -0.541000
     37 O4          56.9210    -7.9190    48.0220 o          1 A1H      -0.586100
     38 N6          67.1160    -1.4390    53.0300 nb         1 A1H      -0.623000
     39 C29         66.0400     0.4630    54.0190 ca         1 A1H      -0.126300
     40 C30         66.1650     1.7110    54.8470 c3         1 A1H       0.209100
     41 N7          67.2310     2.5620    54.3550 n7         1 A1H      -0.873400
     42 C31         67.5040     3.7110    55.2010 c3         1 A1H       0.158800
     43 C32         68.4690     3.3470    56.3180 c3         1 A1H       0.159600
     44 O5          68.6880     4.4990    57.1030 oh         1 A1H      -0.667000
     45 C33         64.8260     0.0360    53.5050 ca         1 A1H      -0.079000
     46 C34         64.7670    -1.1400    52.7700 ca         1 A1H      -0.146000
     47 H10         54.3910   -11.6890    53.1740 h1         1 A1H       0.042700
     48 H11         53.6630   -12.5200    51.8170 h1         1 A1H       0.042700
     49 H14         54.1430   -14.8070    51.6870 h1         1 A1H       0.036700
     50 H13         55.6650   -15.4190    52.3220 h1         1 A1H       0.036700
     51 H16         56.8920   -14.2070    50.4990 hc         1 A1H       0.053700
     52 H15         55.3640   -13.6430    49.8540 hc         1 A1H       0.053700
     53 H18         55.9840   -15.5640    48.5700 h1         1 A1H       0.059200
     54 H17         54.5920   -15.9850    49.5580 h1         1 A1H       0.059200
     55 H21         56.0050   -18.7350    52.3070 h1         1 A1H       0.103700
     56 H22         56.2290   -20.2420    51.3750 h1         1 A1H       0.103700
     57 H20         57.5640   -19.0740    51.5060 h1         1 A1H       0.103700
     58 H23         53.6060   -10.7960    50.1690 ha         1 A1H       0.123000
     59 H24         54.8310    -9.1710    48.7410 ha         1 A1H       0.150000
     60 H25         58.8010    -7.2770    46.8420 ha         1 A1H       0.143000
     61 H26         60.6330    -5.9250    45.9450 ha         1 A1H       0.117000
     62 H27         62.6660    -5.5250    47.2940 ha         1 A1H       0.122000
     63 H5          62.0190    -4.1210    51.6420 hc         1 A1H       0.044033
     64 H6          62.7670    -3.2030    50.3450 hc         1 A1H       0.044033
     65 H7          61.5220    -4.3940    49.9840 hc         1 A1H       0.044033
     66 H31         68.1330    -0.0240    54.1060 h4         1 A1H       0.039100
     67 H1          64.1620    -3.6180    52.4750 hn         1 A1H       0.155000
     68 H2          66.6110    -5.9220    51.5230 ha         1 A1H       0.135000
     69 H3          66.2090    -7.9540    50.1880 ha         1 A1H       0.119000
     70 H4          64.0410    -8.2690    49.0460 ha         1 A1H       0.120000
     71 H12         61.0100    -9.0270    50.9390 hc         1 A1H       0.045700
     72 H19         61.8700    -7.5880    51.4410 hc         1 A1H       0.045700
     73 H28         60.1180    -7.6250    51.5180 hc         1 A1H       0.045700
     74 H8          59.0030    -9.0010    50.0840 hn         1 A1H       0.184000
     75 H9          57.2770   -11.5420    52.2310 h4         1 A1H       0.037100
     76 H29         55.2340   -13.6370    53.5900 hn         1 A1H       0.424000
     77 H34         57.3840   -16.7440    50.1400 hn         1 A1H       0.473000
     78 H33         66.3960     1.4200    55.8760 h1         1 A1H       0.041200
     79 H32         65.1910     2.2190    54.8890 h1         1 A1H       0.041200
     80 H39         66.9900     2.8810    53.4250 hn         1 A1H       0.423000
     81 H35         67.9620     4.4860    54.5830 h1         1 A1H       0.045700
     82 H36         66.5900     4.1470    55.6320 h1         1 A1H       0.045700
     83 H37         68.0560     2.5270    56.9200 h1         1 A1H       0.025700
     84 H38         69.3980     2.9740    55.8680 h1         1 A1H       0.025700
     85 H43         69.2980     4.2700    57.8100 ho         1 A1H       0.447000
     86 H40         63.9280     0.6190    53.6690 ha         1 A1H       0.120000
     87 H41         63.8240    -1.4650    52.3500 ha         1 A1H       0.123000
     88 N1          64.9010    -3.9060    51.8520 ns         1 A1H      -0.166000
@<TRIPOS>BOND
     1     1    31 1   
     2     1    32 1   
     3     1    47 1   
     4     1    48 1   
     5     2     3 1   
     6     2    32 1   
     7     2    49 1   
     8     2    50 1   
     9     3     4 1   
    10     3    51 1   
    11     3    52 1   
    12     4    33 1   
    13     4    53 1   
    14     4    54 1   
    15     5    34 1   
    16     5    55 1   
    17     5    56 1   
    18     5    57 1   
    19     6     7 ar  
    20     6    31 ar  
    21     6    58 1   
    22     7    28 ar  
    23     7    59 1   
    24     8     9 ar  
    25     8    25 ar  
    26     8    60 1   
    27     9    10 ar  
    28     9    61 1   
    29    10    22 ar  
    30    10    62 1   
    31    11    12 1   
    32    11    17 ar  
    33    11    21 ar  
    34    12    63 1   
    35    12    64 1   
    36    12    65 1   
    37    13    16 1   
    38    13    38 ar  
    39    13    46 ar  
    40    14    38 ar  
    41    14    39 ar  
    42    14    66 1   
    43    15    16 2   
    44    16    88 1   
    45    17    18 ar  
    46    17    88 1   
    47    18    19 ar  
    48    18    68 1   
    49    19    20 ar  
    50    19    69 1   
    51    20    21 ar  
    52    20    70 1   
    53    21    22 1   
    54    22    23 ar  
    55    23    24 1   
    56    23    25 ar  
    57    24    71 1   
    58    24    72 1   
    59    24    73 1   
    60    25    26 1   
    61    26    27 1   
    62    26    74 1   
    63    27    28 1   
    64    27    37 2   
    65    28    29 ar  
    66    29    30 ar  
    67    30    31 ar  
    68    30    75 1   
    69    32    76 1   
    70    33    34 1   
    71    33    77 1   
    72    34    35 2   
    73    34    36 2   
    74    39    40 1   
    75    39    45 ar  
    76    40    41 1   
    77    40    78 1   
    78    40    79 1   
    79    41    42 1   
    80    41    80 1   
    81    42    43 1   
    82    42    81 1   
    83    42    82 1   
    84    43    44 1   
    85    43    83 1   
    86    43    84 1   
    87    44    85 1   
    88    45    46 ar  
    89    45    86 1   
    90    46    87 1   
    91    67    88 1   
@<TRIPOS>SUBSTRUCTURE
     1 A1H         1 TEMP              0 ****  ****    0 ROOT
