@<TRIPOS>MOLECULE
A1H
   74    77     1     0     0
SMALL
abcg2


@<TRIPOS>ATOM
      1 CL24       110.5580   150.8630   118.6950 cl         1 A1H      -0.168000
      2 C01        101.3910   147.5350   120.9260 c3         1 A1H       0.139900
      3 O02        101.5340   146.8950   119.6800 os         1 A1H      -0.434000
      4 C04        101.2330   144.9930   118.3480 cc         1 A1H       0.162800
      5 C05        102.2410   144.1350   117.9940 cd         1 A1H      -0.195600
      6 N06        103.2700   143.6750   118.8200 ns         1 A1H      -0.387100
      7 C07        104.4710   144.2980   118.8720 c          1 A1H       0.605100
      8 C08        105.4820   143.7060   119.8220 c3         1 A1H      -0.158400
      9 C09        105.5250   144.3770   121.2150 c3         1 A1H      -0.056000
     10 C10        106.7590   143.8390   121.9380 c3         1 A1H      -0.088600
     11 C11        104.2760   144.0270   122.0220 c3         1 A1H      -0.088600
     12 C12        105.5950   145.9110   121.1190 c3         1 A1H       0.106000
     13 N13        106.6450   146.4080   120.2630 ns         1 A1H      -0.484900
     14 C14        107.7720   146.9860   120.6960 c          1 A1H       0.629700
     15 C15        108.7270   147.4210   119.6210 ca         1 A1H      -0.199600
     16 C16        109.2500   146.5380   118.6640 ca         1 A1H       0.210100
     17 O17        108.8660   145.2600   118.7550 os         1 A1H      -0.347100
     18 C18        109.2240   144.3090   117.7540 c3         1 A1H       0.164600
     19 C19        108.4080   144.4630   116.4880 c3         1 A1H      -0.134100
     20 C20        110.1590   147.0120   117.7190 ca         1 A1H      -0.251000
     21 C21        110.5360   148.3380   117.7500 ca         1 A1H       0.234000
     22 C23        110.0470   149.2180   118.6990 ca         1 A1H       0.016000
     23 C25        109.1530   148.7410   119.6410 ca         1 A1H       0.000000
     24 O26        108.0230   147.2160   121.8710 o          1 A1H      -0.613100
     25 O27        104.7100   145.2960   118.2070 o          1 A1H      -0.598100
     26 C28        102.1250   143.8480   116.5940 c          1 A1H       0.578200
     27 N29        101.0150   144.5830   116.2020 n          1 A1H      -0.167400
     28 N30        100.4890   145.2630   117.2710 na         1 A1H      -0.398400
     29 C31         99.3070   146.0810   117.1140 c3         1 A1H       0.237800
     30 C32         98.0350   145.2500   116.9700 c3         1 A1H      -0.095400
     31 C33         98.2360   144.0190   116.0790 c3         1 A1H      -0.029100
     32 C34        100.3960   144.6040   114.9380 ca         1 A1H       0.058600
     33 C35         99.0290   144.3240   114.8410 ca         1 A1H      -0.097300
     34 C36         98.4440   144.3640   113.5810 ca         1 A1H      -0.099000
     35 C37         99.1960   144.6390   112.4470 ca         1 A1H      -0.110000
     36 C38        100.5550   144.8960   112.5620 ca         1 A1H      -0.099000
     37 C39        101.1560   144.8900   113.8110 ca         1 A1H      -0.086000
     38 O40        102.7950   143.1400   115.8480 o          1 A1H      -0.548000
     39 H1         101.8490   148.5200   120.8470 h1         1 A1H       0.034700
     40 H2         100.3390   147.6600   121.2040 h1         1 A1H       0.034700
     41 H3         101.8930   146.9810   121.7280 h1         1 A1H       0.034700
     42 H4          99.9050   145.6260   119.9030 h1         1 A1H       0.039700
     43 H5         101.4460   144.9680   120.4450 h1         1 A1H       0.039700
     44 H6         103.1420   142.8240   119.3460 hn         1 A1H       0.319500
     45 H7         105.3030   142.6370   119.9650 hc         1 A1H       0.065700
     46 H8         106.4620   143.8010   119.3490 hc         1 A1H       0.065700
     47 H9         106.8340   144.2540   122.9450 hc         1 A1H       0.038367
     48 H10        106.7090   142.7520   122.0300 hc         1 A1H       0.038367
     49 H11        107.6780   144.0820   121.4030 hc         1 A1H       0.038367
     50 H12        104.3320   144.4600   123.0230 hc         1 A1H       0.038367
     51 H13        103.3650   144.4040   121.5540 hc         1 A1H       0.038367
     52 H14        104.1720   142.9460   122.1330 hc         1 A1H       0.038367
     53 H15        105.7400   146.3180   122.1200 h1         1 A1H       0.059700
     54 H16        104.6420   146.3070   120.7580 h1         1 A1H       0.059700
     55 H17        106.4920   146.3080   119.2710 hn         1 A1H       0.342500
     56 H18        109.0220   143.3430   118.2150 h1         1 A1H       0.055700
     57 H19        110.2970   144.3480   117.5500 h1         1 A1H       0.055700
     58 H20        108.6550   143.6530   115.8010 hc         1 A1H       0.054700
     59 H21        107.3400   144.4060   116.7030 hc         1 A1H       0.054700
     60 H22        108.6050   145.4030   115.9730 hc         1 A1H       0.054700
     61 H23        110.5950   146.3730   116.9640 ha         1 A1H       0.141000
     62 H24        108.7670   149.4150   120.3950 ha         1 A1H       0.146000
     63 H25         99.4580   146.7240   116.2460 h1         1 A1H       0.073200
     64 H26         99.2480   146.7430   117.9750 h1         1 A1H       0.073200
     65 H27         97.2610   145.8970   116.5520 hc         1 A1H       0.053200
     66 H28         97.6890   144.9260   117.9530 hc         1 A1H       0.053200
     67 H29         97.2630   143.6120   115.8030 hc         1 A1H       0.057700
     68 H30         98.7440   143.2390   116.6510 hc         1 A1H       0.057700
     69 H31         97.3830   144.1620   113.4870 ha         1 A1H       0.113000
     70 H32         98.7210   144.6540   111.4750 ha         1 A1H       0.117000
     71 H33        101.1460   145.1150   111.6830 ha         1 A1H       0.121000
     72 H34        102.2080   145.1170   113.9130 ha         1 A1H       0.141000
     73 F22        111.4040   148.7830   116.8430 f          1 A1H      -0.159000
     74 C03        100.9810   145.6050   119.6820 c3         1 A1H       0.203800
@<TRIPOS>BOND
     1     1    22 1   
     2     2     3 1   
     3     2    39 1   
     4     2    40 1   
     5     2    41 1   
     6     3    74 1   
     7     4     5 2   
     8     4    28 1   
     9     4    74 1   
    10     5     6 1   
    11     5    26 1   
    12     6     7 1   
    13     6    44 1   
    14     7     8 1   
    15     7    25 2   
    16     8     9 1   
    17     8    45 1   
    18     8    46 1   
    19     9    10 1   
    20     9    11 1   
    21     9    12 1   
    22    10    47 1   
    23    10    48 1   
    24    10    49 1   
    25    11    50 1   
    26    11    51 1   
    27    11    52 1   
    28    12    13 1   
    29    12    53 1   
    30    12    54 1   
    31    13    14 1   
    32    13    55 1   
    33    14    15 1   
    34    14    24 2   
    35    15    16 ar  
    36    15    23 ar  
    37    16    17 1   
    38    16    20 ar  
    39    17    18 1   
    40    18    19 1   
    41    18    56 1   
    42    18    57 1   
    43    19    58 1   
    44    19    59 1   
    45    19    60 1   
    46    20    21 ar  
    47    20    61 1   
    48    21    22 ar  
    49    21    73 1   
    50    22    23 ar  
    51    23    62 1   
    52    26    27 1   
    53    26    38 2   
    54    27    28 1   
    55    27    32 1   
    56    28    29 1   
    57    29    30 1   
    58    29    63 1   
    59    29    64 1   
    60    30    31 1   
    61    30    65 1   
    62    30    66 1   
    63    31    33 1   
    64    31    67 1   
    65    31    68 1   
    66    32    33 ar  
    67    32    37 ar  
    68    33    34 ar  
    69    34    35 ar  
    70    34    69 1   
    71    35    36 ar  
    72    35    70 1   
    73    36    37 ar  
    74    36    71 1   
    75    37    72 1   
    76    42    74 1   
    77    43    74 1   
@<TRIPOS>SUBSTRUCTURE
     1 A1H         1 TEMP              0 ****  ****    0 ROOT
