@<TRIPOS>MOLECULE
A1H
   50    50     1     0     0
SMALL
No Charge or Current Charge


@<TRIPOS>ATOM
      1 C4         -15.4120    15.0320   -30.9970 c3         1 A1H      -0.075400
      2 C5         -16.1580    13.7510   -30.5470 c3         1 A1H      -0.073400
      3 C6         -15.9490    13.3780   -29.0600 c3         1 A1H      -0.074400
      4 C7         -16.5390    14.3980   -28.0540 c3         1 A1H      -0.076400
      5 C8         -16.3660    13.9910   -26.5760 c3         1 A1H       0.158600
      6 C10        -19.1010    13.4580   -24.2880 c6         1 A1H       0.216300
      7 C13        -19.3570    11.0820   -25.1530 c6         1 A1H       0.130300
      8 C2         -16.9010    15.6230   -33.0460 c3         1 A1H      -0.078400
      9 C9         -17.0960    12.2620   -25.0100 c6         1 A1H       0.364300
     10 C11        -19.5080    14.5210   -23.2390 c3         1 A1H      -0.348400
     11 C12        -19.9050    12.1240   -24.1380 c6         1 A1H       0.145300
     12 O2         -17.6940    13.1960   -24.0830 os         1 A1H      -0.454000
     13 C14        -17.8270    10.8770   -24.9510 c6         1 A1H       0.118300
     14 C1         -16.9190    15.9770   -34.5450 c3         1 A1H      -0.088100
     15 C3         -15.4820    15.3100   -32.5170 c3         1 A1H      -0.072400
     16 O1         -17.1360    12.7990   -26.3470 os         1 A1H      -0.481000
     17 S1         -19.1360    16.2240   -23.6660 s6         1 A1H       1.323600
     18 O3         -19.7800    16.4070   -24.9750 o          1 A1H      -0.696200
     19 O4         -17.6680    16.2890   -23.6920 o          1 A1H      -0.696200
     20 O5         -19.7550    16.9880   -22.5740 o          1 A1H      -0.696200
     21 O6         -21.3180    12.2980   -24.3550 oh         1 A1H      -0.698000
     22 O7         -20.0530     9.8260   -25.0230 oh         1 A1H      -0.679000
     23 O8         -17.3180     9.9580   -25.9470 oh         1 A1H      -0.717000
     24 H8         -14.3560    14.9430   -30.7110 hc         1 A1H       0.039200
     25 H9         -15.8100    15.9010   -30.4610 hc         1 A1H       0.039200
     26 H10        -17.2330    13.8620   -30.7340 hc         1 A1H       0.032700
     27 H11        -15.8170    12.9100   -31.1640 hc         1 A1H       0.032700
     28 H12        -16.4110    12.3980   -28.8860 hc         1 A1H       0.040200
     29 H13        -14.8760    13.2550   -28.8650 hc         1 A1H       0.040200
     30 H14        -16.0530    15.3710   -28.1940 hc         1 A1H       0.049200
     31 H15        -17.6060    14.5460   -28.2620 hc         1 A1H       0.049200
     32 H16        -15.3030    13.8210   -26.3610 h1         1 A1H       0.049700
     33 H17        -16.7190    14.8110   -25.9370 h1         1 A1H       0.049700
     34 H19        -19.2600    13.8590   -25.3010 h1         1 A1H       0.079700
     35 H25        -19.5100    11.4870   -26.1660 h1         1 A1H       0.070700
     36 H4         -17.3260    16.4590   -32.4770 hc         1 A1H       0.042200
     37 H5         -17.5560    14.7590   -32.8840 hc         1 A1H       0.042200
     38 H18        -16.0450    12.1080   -24.7250 h2         1 A1H       0.050700
     39 H20        -20.5930    14.5020   -23.1050 h1         1 A1H       0.083200
     40 H21        -19.0270    14.3180   -22.2780 h1         1 A1H       0.083200
     41 H23        -19.7360    11.7370   -23.1210 h1         1 A1H       0.037700
     42 H27        -17.6650    10.4590   -23.9460 h1         1 A1H       0.045700
     43 H2         -17.9430    16.1880   -34.8760 hc         1 A1H       0.026367
     44 H3         -16.3050    16.8640   -34.7420 hc         1 A1H       0.026367
     45 H1         -16.5300    15.1450   -35.1450 hc         1 A1H       0.026367
     46 H6         -15.0720    14.4490   -33.0610 hc         1 A1H       0.029700
     47 H7         -14.8270    16.1610   -32.7410 hc         1 A1H       0.029700
     48 H24        -21.6480    11.3890   -24.5560 ho         1 A1H       0.501000
     49 H26        -19.4440     9.1580   -25.4150 ho         1 A1H       0.449000
     50 H28        -17.1000    10.5130   -26.7340 ho         1 A1H       0.498000
@<TRIPOS>BOND
     1     1     2 1   
     2     1    15 1   
     3     1    24 1   
     4     1    25 1   
     5     2     3 1   
     6     2    26 1   
     7     2    27 1   
     8     3     4 1   
     9     3    28 1   
    10     3    29 1   
    11     4     5 1   
    12     4    30 1   
    13     4    31 1   
    14     5    16 1   
    15     5    32 1   
    16     5    33 1   
    17     6    10 1   
    18     6    11 1   
    19     6    12 1   
    20     6    34 1   
    21     7    11 1   
    22     7    13 1   
    23     7    22 1   
    24     7    35 1   
    25     8    14 1   
    26     8    15 1   
    27     8    36 1   
    28     8    37 1   
    29     9    12 1   
    30     9    13 1   
    31     9    16 1   
    32     9    38 1   
    33    10    17 1   
    34    10    39 1   
    35    10    40 1   
    36    11    21 1   
    37    11    41 1   
    38    13    23 1   
    39    13    42 1   
    40    14    43 1   
    41    14    44 1   
    42    14    45 1   
    43    15    46 1   
    44    15    47 1   
    45    17    18 1   
    46    17    19 1   
    47    17    20 1   
    48    21    48 1   
    49    22    49 1   
    50    23    50 1   
@<TRIPOS>SUBSTRUCTURE
     1 A1H         1 TEMP              0 ****  ****    0 ROOT
