@<TRIPOS>MOLECULE
A1H
   74    77     1     0     0
SMALL
No Charge or Current Charge


@<TRIPOS>ATOM
      1 Cl24       113.7450   147.5970   119.4360 cl         1 A1H      -0.168000
      2 C01        100.5380   144.3860   122.3480 c3         1 A1H       0.139900
      3 O02        100.9040   144.7480   121.0080 os         1 A1H      -0.434000
      4 C04        100.8090   144.3830   118.6160 cc         1 A1H       0.162800
      5 C05        102.0810   144.7270   118.2010 cd         1 A1H      -0.195600
      6 N06        103.1500   144.6700   119.1160 ns         1 A1H      -0.387100
      7 C07        104.4550   145.1330   119.0410 c          1 A1H       0.605100
      8 C08        105.2940   144.8230   120.2930 c3         1 A1H      -0.158400
      9 C09        105.4680   146.0330   121.2740 c3         1 A1H      -0.056000
     10 C10        106.4000   145.5910   122.4360 c3         1 A1H      -0.088600
     11 C11        104.0910   146.4270   121.8750 c3         1 A1H      -0.088600
     12 C12        106.0700   147.2860   120.5640 c3         1 A1H       0.106000
     13 N13        107.3110   147.0010   119.8350 ns         1 A1H      -0.484900
     14 C14        108.5840   147.2930   120.2620 c          1 A1H       0.629700
     15 C15        109.7460   146.8300   119.4030 ca         1 A1H      -0.199600
     16 C16        109.6170   145.9440   118.2960 ca         1 A1H       0.210100
     17 O17        108.3800   145.4120   117.9810 os         1 A1H      -0.347100
     18 C18        108.0730   144.7430   116.7410 c3         1 A1H       0.164600
     19 C19        108.0290   145.7910   115.6120 c3         1 A1H      -0.134100
     20 C20        110.7640   145.5780   117.5580 ca         1 A1H      -0.251000
     21 C21        112.0230   146.0840   117.9000 ca         1 A1H       0.234000
     22 C23        112.1630   146.9550   118.9890 ca         1 A1H       0.016000
     23 C25        111.0330   147.3210   119.7340 ca         1 A1H       0.000000
     24 O26        108.7670   147.9090   121.3030 o          1 A1H      -0.613100
     25 O27        104.9270   145.7190   118.0810 o          1 A1H      -0.598100
     26 C28        102.1000   145.1100   116.7760 c          1 A1H       0.578200
     27 N29        100.7700   144.9970   116.3670 n          1 A1H      -0.167400
     28 N30         99.9800   144.5520   117.4950 na         1 A1H      -0.398400
     29 C31         98.5090   144.6460   117.3680 c3         1 A1H       0.237800
     30 C32         97.9120   143.4920   116.5370 c3         1 A1H      -0.095400
     31 C33         98.7370   143.1270   115.2800 c3         1 A1H      -0.029100
     32 C34        100.2380   145.2010   115.0390 ca         1 A1H       0.058600
     33 C35         99.2370   144.3470   114.5040 ca         1 A1H      -0.097300
     34 C36         98.7240   144.5960   113.2150 ca         1 A1H      -0.099000
     35 C37         99.1930   145.6800   112.4570 ca         1 A1H      -0.110000
     36 C38        100.1830   146.5240   112.9810 ca         1 A1H      -0.099000
     37 C39        100.7020   146.2850   114.2640 ca         1 A1H      -0.086000
     38 O40        103.0440   145.4130   116.0580 o          1 A1H      -0.548000
     39 H1         101.0060   145.0690   123.0690 h1         1 A1H       0.034700
     40 H2          99.4500   144.4390   122.4840 h1         1 A1H       0.034700
     41 H3         100.8690   143.3650   122.5810 h1         1 A1H       0.034700
     42 H4          99.2420   143.9340   120.0290 h1         1 A1H       0.039700
     43 H5         100.6550   142.8670   120.1180 h1         1 A1H       0.039700
     44 H6         102.9390   144.2940   120.0340 hn         1 A1H       0.319500
     45 H7         104.8190   144.0070   120.8510 hc         1 A1H       0.065700
     46 H8         106.2840   144.4900   119.9590 hc         1 A1H       0.065700
     47 H9         106.5660   146.4150   123.1410 hc         1 A1H       0.038367
     48 H10        105.9620   144.7550   122.9940 hc         1 A1H       0.038367
     49 H11        107.3770   145.2660   122.0610 hc         1 A1H       0.038367
     50 H12        104.2020   147.2340   122.6100 hc         1 A1H       0.038367
     51 H13        103.4010   146.7790   121.0990 hc         1 A1H       0.038367
     52 H14        103.6230   145.5740   122.3830 hc         1 A1H       0.038367
     53 H15        106.2500   148.0770   121.3040 h1         1 A1H       0.059700
     54 H16        105.3430   147.6860   119.8450 h1         1 A1H       0.059700
     55 H17        107.2450   146.4800   118.9670 hn         1 A1H       0.342500
     56 H18        107.0830   144.2730   116.8140 h1         1 A1H       0.055700
     57 H19        108.7920   143.9460   116.5150 h1         1 A1H       0.055700
     58 H20        107.7300   145.3170   114.6700 hc         1 A1H       0.054700
     59 H21        107.3000   146.5760   115.8470 hc         1 A1H       0.054700
     60 H22        109.0080   146.2590   115.4610 hc         1 A1H       0.054700
     61 H23        110.7070   144.8930   116.7190 ha         1 A1H       0.141000
     62 H24        111.1660   148.0000   120.5730 ha         1 A1H       0.146000
     63 H25         98.2630   145.6000   116.8840 h1         1 A1H       0.073200
     64 H26         98.0420   144.6630   118.3610 h1         1 A1H       0.073200
     65 H27         96.8930   143.7680   116.2390 hc         1 A1H       0.053200
     66 H28         97.8260   142.6010   117.1700 hc         1 A1H       0.053200
     67 H29         98.1320   142.4740   114.6390 hc         1 A1H       0.057700
     68 H30         99.5980   142.5190   115.5870 hc         1 A1H       0.057700
     69 H31         97.9620   143.9440   112.7930 ha         1 A1H       0.113000
     70 H32         98.7910   145.8640   111.4630 ha         1 A1H       0.117000
     71 H33        100.5460   147.3660   112.3950 ha         1 A1H       0.121000
     72 H34        101.4560   146.9590   114.6620 ha         1 A1H       0.141000
     73 F22        113.1040   145.7160   117.1750 f          1 A1H      -0.159000
     74 C03        100.3380   143.9090   119.9810 c3         1 A1H       0.203800
@<TRIPOS>BOND
     1     1    22 1   
     2     2     3 1   
     3     2    39 1   
     4     2    40 1   
     5     2    41 1   
     6     3    74 1   
     7     4     5 2   
     8     4    28 1   
     9     4    74 1   
    10     5     6 1   
    11     5    26 1   
    12     6     7 1   
    13     6    44 1   
    14     7     8 1   
    15     7    25 2   
    16     8     9 1   
    17     8    45 1   
    18     8    46 1   
    19     9    10 1   
    20     9    11 1   
    21     9    12 1   
    22    10    47 1   
    23    10    48 1   
    24    10    49 1   
    25    11    50 1   
    26    11    51 1   
    27    11    52 1   
    28    12    13 1   
    29    12    53 1   
    30    12    54 1   
    31    13    14 1   
    32    13    55 1   
    33    14    15 1   
    34    14    24 2   
    35    15    16 ar  
    36    15    23 ar  
    37    16    17 1   
    38    16    20 ar  
    39    17    18 1   
    40    18    19 1   
    41    18    56 1   
    42    18    57 1   
    43    19    58 1   
    44    19    59 1   
    45    19    60 1   
    46    20    21 ar  
    47    20    61 1   
    48    21    22 ar  
    49    21    73 1   
    50    22    23 ar  
    51    23    62 1   
    52    26    27 1   
    53    26    38 2   
    54    27    28 1   
    55    27    32 1   
    56    28    29 1   
    57    29    30 1   
    58    29    63 1   
    59    29    64 1   
    60    30    31 1   
    61    30    65 1   
    62    30    66 1   
    63    31    33 1   
    64    31    67 1   
    65    31    68 1   
    66    32    33 ar  
    67    32    37 ar  
    68    33    34 ar  
    69    34    35 ar  
    70    34    69 1   
    71    35    36 ar  
    72    35    70 1   
    73    36    37 ar  
    74    36    71 1   
    75    37    72 1   
    76    42    74 1   
    77    43    74 1   
@<TRIPOS>SUBSTRUCTURE
     1 A1H         1 TEMP              0 ****  ****    0 ROOT
