@<TRIPOS>MOLECULE
A1H
   62    61     1     0     0
SMALL
abcg2


@<TRIPOS>ATOM
      1 O1          -5.8750     4.1700    25.7960 oh         1 A1H      -0.667000
      2 C1          -6.2940     3.6410    27.0310 c3         1 A1H       0.165600
      3 C2          -7.5660     4.3660    27.4530 c3         1 A1H       0.170300
      4 O2          -7.9580     3.7940    28.6800 oh         1 A1H      -0.653000
      5 C3          -7.4020     5.8720    27.5500 c3         1 A1H       0.135600
      6 O3          -6.3760     6.1540    28.5030 os         1 A1H      -0.442100
      7 C4          -6.1290     7.4230    28.8050 c          1 A1H       0.591100
      8 O4          -6.7100     8.3490    28.2970 o          1 A1H      -0.491000
      9 C5          -5.0730     7.5350    29.8740 c3         1 A1H      -0.136400
     10 C6          -4.5050     8.9340    30.0570 c3         1 A1H      -0.065400
     11 C7          -3.6380     9.4020    28.8930 c3         1 A1H      -0.076400
     12 C8          -3.0410    10.7920    29.0960 c3         1 A1H      -0.071400
     13 C9          -1.9840    10.8610    30.2000 c3         1 A1H      -0.043200
     14 C10         -1.3930    12.2280    30.3360 c2         1 A1H      -0.219200
     15 C11         -1.4390    12.9750    31.4360 c2         1 A1H      -0.218200
     16 C12         -0.8440    14.3410    31.5760 c3         1 A1H      -0.042200
     17 C13          0.3110    14.3760    32.5780 c3         1 A1H      -0.073400
     18 C14          0.8460    15.7870    32.7970 c3         1 A1H      -0.073400
     19 C15          2.1170    15.8890    33.6370 c3         1 A1H      -0.071400
     20 C16          2.0080    15.3380    35.0640 c3         1 A1H      -0.073400
     21 C17          2.4130    13.8730    35.2080 c3         1 A1H      -0.075400
     22 C18          2.3340    13.3420    36.6370 c3         1 A1H      -0.074400
     23 C19          0.9180    13.2630    37.1970 c3         1 A1H      -0.076400
     24 C20          0.8710    12.6370    38.5850 c3         1 A1H      -0.089100
     25 H1          -5.0260     3.7790    25.5720 ho         1 A1H       0.451000
     26 H2          -6.5200     2.5690    26.9580 h1         1 A1H       0.038200
     27 H3          -5.5300     3.7560    27.8090 h1         1 A1H       0.038200
     28 H4          -8.3260     4.1990    26.6750 h1         1 A1H       0.046700
     29 H5          -8.8420     4.1070    28.8950 ho         1 A1H       0.448000
     30 H6          -7.1470     6.2920    26.5760 h1         1 A1H       0.057200
     31 H7          -8.3460     6.3260    27.8680 h1         1 A1H       0.057200
     32 H8          -5.5340     7.1920    30.8070 hc         1 A1H       0.070700
     33 H9          -4.2740     6.8190    29.6640 hc         1 A1H       0.070700
     34 H11         -3.9160     8.9280    30.9770 hc         1 A1H       0.049700
     35 H10         -5.3140     9.6500    30.2240 hc         1 A1H       0.049700
     36 H13         -4.2320     9.4080    27.9760 hc         1 A1H       0.043700
     37 H12         -2.8310     8.6780    28.7290 hc         1 A1H       0.043700
     38 H14         -2.5890    11.1260    28.1580 hc         1 A1H       0.043200
     39 H15         -3.8430    11.5040    29.3170 hc         1 A1H       0.043200
     40 H16         -2.4080    10.5510    31.1600 hc         1 A1H       0.042200
     41 H17         -1.1930    10.1400    29.9620 hc         1 A1H       0.042200
     42 H18         -0.9060    12.6310    29.4490 ha         1 A1H       0.165000
     43 H19         -1.9260    12.5720    32.3220 ha         1 A1H       0.164000
     44 H20         -0.4950    14.6990    30.6030 hc         1 A1H       0.043200
     45 H21         -1.6170    15.0430    31.9070 hc         1 A1H       0.043200
     46 H22         -0.0250    13.9510    33.5280 hc         1 A1H       0.041200
     47 H23          1.1150    13.7250    32.2190 hc         1 A1H       0.041200
     48 H24          1.0390    16.2450    31.8210 hc         1 A1H       0.035200
     49 H25          0.0610    16.3940    33.2620 hc         1 A1H       0.035200
     50 H26          2.9410    15.3910    33.1130 hc         1 A1H       0.037200
     51 H27          2.3950    16.9450    33.6840 hc         1 A1H       0.037200
     52 H28          2.6490    15.9270    35.7270 hc         1 A1H       0.037700
     53 H29          0.9870    15.4920    35.4280 hc         1 A1H       0.037700
     54 H30          1.7990    13.2410    34.5600 hc         1 A1H       0.038200
     55 H31          3.4410    13.7620    34.8460 hc         1 A1H       0.038200
     56 H32          2.7790    12.3420    36.6680 hc         1 A1H       0.036700
     57 H33          2.9500    13.9670    37.2940 hc         1 A1H       0.036700
     58 H34          0.4740    14.2610    37.2370 hc         1 A1H       0.037200
     59 H35          0.2940    12.6810    36.5120 hc         1 A1H       0.037200
     60 H37         -0.1480    12.5910    38.9700 hc         1 A1H       0.030367
     61 H36          1.2670    11.6200    38.5720 hc         1 A1H       0.030367
     62 H38          1.4670    13.2110    39.2970 hc         1 A1H       0.030367
@<TRIPOS>BOND
     1     1     2 1   
     2     1    25 1   
     3     2     3 1   
     4     2    26 1   
     5     2    27 1   
     6     3     4 1   
     7     3     5 1   
     8     3    28 1   
     9     4    29 1   
    10     5     6 1   
    11     5    30 1   
    12     5    31 1   
    13     6     7 1   
    14     7     8 2   
    15     7     9 1   
    16     9    10 1   
    17     9    32 1   
    18     9    33 1   
    19    10    11 1   
    20    10    34 1   
    21    10    35 1   
    22    11    12 1   
    23    11    36 1   
    24    11    37 1   
    25    12    13 1   
    26    12    38 1   
    27    12    39 1   
    28    13    14 1   
    29    13    40 1   
    30    13    41 1   
    31    14    15 2   
    32    14    42 1   
    33    15    16 1   
    34    15    43 1   
    35    16    17 1   
    36    16    44 1   
    37    16    45 1   
    38    17    18 1   
    39    17    46 1   
    40    17    47 1   
    41    18    19 1   
    42    18    48 1   
    43    18    49 1   
    44    19    20 1   
    45    19    50 1   
    46    19    51 1   
    47    20    21 1   
    48    20    52 1   
    49    20    53 1   
    50    21    22 1   
    51    21    54 1   
    52    21    55 1   
    53    22    23 1   
    54    22    56 1   
    55    22    57 1   
    56    23    24 1   
    57    23    58 1   
    58    23    59 1   
    59    24    60 1   
    60    24    61 1   
    61    24    62 1   
@<TRIPOS>SUBSTRUCTURE
     1 A1H         1 TEMP              0 ****  ****    0 ROOT
