@<TRIPOS>MOLECULE
A1H
   62    61     1     0     0
SMALL
No Charge or Current Charge


@<TRIPOS>ATOM
      1 O1          -5.9300     7.1910    25.2540 oh         1 A1H      -0.667000
      2 C1          -5.4030     6.0510    25.9570 c3         1 A1H       0.165600
      3 C2          -6.5400     5.2280    26.6320 c3         1 A1H       0.170300
      4 O2          -5.9850     4.0470    27.2410 oh         1 A1H      -0.653000
      5 C3          -7.3080     6.0340    27.7130 c3         1 A1H       0.135600
      6 O3          -6.4500     6.1810    28.8670 os         1 A1H      -0.442100
      7 C4          -6.9110     6.9250    29.9220 c          1 A1H       0.591100
      8 O4          -8.0110     7.4600    29.9640 o          1 A1H      -0.491000
      9 C5          -5.8770     7.0170    31.0470 c3         1 A1H      -0.136400
     10 C6          -5.0630     8.3350    30.9940 c3         1 A1H      -0.065400
     11 C7          -4.2010     8.4950    29.7160 c3         1 A1H      -0.076400
     12 C8          -3.4040     9.8200    29.6420 c3         1 A1H      -0.071400
     13 C9          -2.2930     9.9650    30.7070 c3         1 A1H      -0.043200
     14 C10         -1.4800    11.2280    30.5110 c2         1 A1H      -0.219200
     15 C11         -1.4350    12.2600    31.3680 c2         1 A1H      -0.218200
     16 C12         -0.6210    13.5220    31.1740 c3         1 A1H      -0.042200
     17 C13          0.4800    13.6720    32.2450 c3         1 A1H      -0.073400
     18 C14          1.3150    14.9620    32.0790 c3         1 A1H      -0.073400
     19 C15          2.5450    15.0870    33.0150 c3         1 A1H      -0.071400
     20 C16          2.2370    15.1170    34.5350 c3         1 A1H      -0.073400
     21 C17          2.2720    13.7290    35.2270 c3         1 A1H      -0.075400
     22 C18          2.0110    13.7690    36.7520 c3         1 A1H      -0.074400
     23 C19          0.5750    14.1900    37.1430 c3         1 A1H      -0.076400
     24 C20          0.3240    14.1310    38.6620 c3         1 A1H      -0.089100
     25 H1          -5.1670     7.6470    24.8330 ho         1 A1H       0.451000
     26 H2          -4.8630     5.3970    25.2580 h1         1 A1H       0.038200
     27 H3          -4.6890     6.3770    26.7250 h1         1 A1H       0.038200
     28 H4          -7.2530     4.9380    25.8490 h1         1 A1H       0.046700
     29 H5          -5.7370     4.3210    28.1540 ho         1 A1H       0.448000
     30 H6          -7.5990     7.0130    27.3090 h1         1 A1H       0.057200
     31 H7          -8.2260     5.4950    27.9810 h1         1 A1H       0.057200
     32 H8          -6.3980     6.9690    32.0090 hc         1 A1H       0.070700
     33 H9          -5.1690     6.1840    30.9580 hc         1 A1H       0.070700
     34 H11         -4.4140     8.3670    31.8770 hc         1 A1H       0.049700
     35 H10         -5.7500     9.1860    31.0780 hc         1 A1H       0.049700
     36 H13         -4.8520     8.4460    28.8350 hc         1 A1H       0.043700
     37 H12         -3.5050     7.6500    29.6360 hc         1 A1H       0.043700
     38 H14         -2.9450     9.8890    28.6480 hc         1 A1H       0.043200
     39 H15         -4.0970    10.6660    29.7240 hc         1 A1H       0.043200
     40 H16         -2.7440     9.9620    31.7070 hc         1 A1H       0.042200
     41 H17         -1.6310     9.0910    30.6610 hc         1 A1H       0.042200
     42 H18         -0.8970    11.2490    29.5890 ha         1 A1H       0.165000
     43 H19         -2.0190    12.2380    32.2910 ha         1 A1H       0.164000
     44 H20         -0.1550    13.5260    30.1800 hc         1 A1H       0.043200
     45 H21         -1.2820    14.3960    31.2110 hc         1 A1H       0.043200
     46 H22          0.0030    13.6750    33.2310 hc         1 A1H       0.041200
     47 H23          1.1430    12.7990    32.2020 hc         1 A1H       0.041200
     48 H24          1.6730    15.0170    31.0430 hc         1 A1H       0.035200
     49 H25          0.6630    15.8310    32.2270 hc         1 A1H       0.035200
     50 H26          3.2590    14.2840    32.7960 hc         1 A1H       0.037200
     51 H27          3.0570    16.0230    32.7570 hc         1 A1H       0.037200
     52 H28          2.9840    15.7560    35.0230 hc         1 A1H       0.037700
     53 H29          1.2660    15.6010    34.6950 hc         1 A1H       0.037700
     54 H30          1.5490    13.0500    34.7640 hc         1 A1H       0.038200
     55 H31          3.2600    13.2840    35.0620 hc         1 A1H       0.038200
     56 H32          2.2070    12.7700    37.1600 hc         1 A1H       0.036700
     57 H33          2.7320    14.4470    37.2250 hc         1 A1H       0.036700
     58 H34          0.3790    15.2130    36.7990 hc         1 A1H       0.037200
     59 H35         -0.1470    13.5370    36.6370 hc         1 A1H       0.037200
     60 H37         -0.7020    14.4390    38.8930 hc         1 A1H       0.030367
     61 H36          0.4700    13.1110    39.0400 hc         1 A1H       0.030367
     62 H38          1.0110    14.7990    39.1950 hc         1 A1H       0.030367
@<TRIPOS>BOND
     1     1     2 1   
     2     1    25 1   
     3     2     3 1   
     4     2    26 1   
     5     2    27 1   
     6     3     4 1   
     7     3     5 1   
     8     3    28 1   
     9     4    29 1   
    10     5     6 1   
    11     5    30 1   
    12     5    31 1   
    13     6     7 1   
    14     7     8 2   
    15     7     9 1   
    16     9    10 1   
    17     9    32 1   
    18     9    33 1   
    19    10    11 1   
    20    10    34 1   
    21    10    35 1   
    22    11    12 1   
    23    11    36 1   
    24    11    37 1   
    25    12    13 1   
    26    12    38 1   
    27    12    39 1   
    28    13    14 1   
    29    13    40 1   
    30    13    41 1   
    31    14    15 2   
    32    14    42 1   
    33    15    16 1   
    34    15    43 1   
    35    16    17 1   
    36    16    44 1   
    37    16    45 1   
    38    17    18 1   
    39    17    46 1   
    40    17    47 1   
    41    18    19 1   
    42    18    48 1   
    43    18    49 1   
    44    19    20 1   
    45    19    50 1   
    46    19    51 1   
    47    20    21 1   
    48    20    52 1   
    49    20    53 1   
    50    21    22 1   
    51    21    54 1   
    52    21    55 1   
    53    22    23 1   
    54    22    56 1   
    55    22    57 1   
    56    23    24 1   
    57    23    58 1   
    58    23    59 1   
    59    24    60 1   
    60    24    61 1   
    61    24    62 1   
@<TRIPOS>SUBSTRUCTURE
     1 A1H         1 TEMP              0 ****  ****    0 ROOT
