@<TRIPOS>MOLECULE
A1H
   88    91     1     0     0
SMALL
No Charge or Current Charge


@<TRIPOS>ATOM
      1 C15         54.4360   -12.1360    52.8530 c3         1 A1H       0.211100
      2 C16         54.9450   -14.3930    51.8510 c3         1 A1H       0.170800
      3 C17         56.2110   -14.3310    50.9660 c3         1 A1H      -0.078400
      4 C18         56.1480   -15.2620    49.7400 c3         1 A1H       0.208800
      5 C19         56.0080   -19.3260    49.9370 c3         1 A1H      -0.342100
      6 C20         54.5980   -11.0180    50.5670 ca         1 A1H      -0.089000
      7 C21         55.3250   -10.2290    49.6600 ca         1 A1H      -0.102000
      8 C22         59.4890    -6.9310    47.7310 ca         1 A1H      -0.128000
      9 C23         60.5280    -6.1450    47.2140 ca         1 A1H      -0.092000
     10 C24         61.7380    -6.0420    47.9090 ca         1 A1H      -0.121000
     11 C25         63.6460    -5.3860    50.4950 ca         1 A1H      -0.085300
     12 C26         62.7050    -4.1760    50.5720 c3         1 A1H      -0.049800
     13 C27         66.4820    -2.2390    52.9120 ca         1 A1H       0.292500
     14 C28         67.6460    -0.4980    53.9720 ca         1 A1H       0.360900
     15 O1          67.5910    -4.1700    51.9410 o          1 A1H      -0.542100
     16 C1          66.5320    -3.5880    52.1700 c          1 A1H       0.514600
     17 C2          64.9270    -5.3050    51.1020 ca         1 A1H      -0.042000
     18 C3          65.7860    -6.4260    51.0650 ca         1 A1H      -0.099000
     19 C4          65.3940    -7.6040    50.4160 ca         1 A1H      -0.101000
     20 C5          64.1410    -7.6770    49.7970 ca         1 A1H      -0.106000
     21 C6          63.2510    -6.5810    49.8240 cp         1 A1H      -0.026000
     22 C7          61.9320    -6.7130    49.1360 cp         1 A1H      -0.019000
     23 C8          60.8710    -7.5040    49.6670 ca         1 A1H      -0.105300
     24 C9          61.0290    -8.2340    51.0080 c3         1 A1H      -0.052800
     25 C10         59.6480    -7.6220    48.9530 ca         1 A1H      -0.021000
     26 N2          58.6140    -8.4340    49.5070 ns         1 A1H      -0.135000
     27 C11         57.3800    -8.8660    49.0280 c          1 A1H       0.513600
     28 C12         56.5950    -9.7250    50.0230 ca         1 A1H       0.278500
     29 N3          57.1370    -9.9900    51.2520 nb         1 A1H      -0.685000
     30 C13         56.4320   -10.7540    52.1220 ca         1 A1H       0.358900
     31 C14         55.1650   -11.2880    51.8260 ca         1 A1H      -0.113300
     32 N4          55.0390   -13.4780    53.0150 n7         1 A1H      -0.880400
     33 N5          56.1000   -16.6720    50.1580 n7         1 A1H      -0.895300
     34 S1          56.0580   -17.8330    48.9710 s6         1 A1H       1.182100
     35 O2          54.7770   -17.6810    48.2780 o          1 A1H      -0.541000
     36 O3          57.3300   -17.7420    48.2530 o          1 A1H      -0.541000
     37 O4          56.9520    -8.5960    47.9070 o          1 A1H      -0.586100
     38 N6          67.6640    -1.6850    53.3190 nb         1 A1H      -0.623000
     39 C29         66.4640     0.2030    54.2610 ca         1 A1H      -0.126300
     40 C30         66.5210     1.5240    55.0040 c3         1 A1H       0.209100
     41 N7          66.7310     2.6280    54.0490 n7         1 A1H      -0.873400
     42 C31         66.7510     3.9970    54.6290 c3         1 A1H       0.158800
     43 C32         67.9980     4.2590    55.5200 c3         1 A1H       0.159600
     44 O5          68.0100     5.6180    55.9870 oh         1 A1H      -0.667000
     45 C33         65.2400    -0.3510    53.8520 ca         1 A1H      -0.079000
     46 C34         65.2510    -1.5800    53.1720 ca         1 A1H      -0.146000
     47 H10         54.4600   -11.6020    53.8140 h1         1 A1H       0.042700
     48 H11         53.3780   -12.2240    52.5690 h1         1 A1H       0.042700
     49 H14         54.0530   -14.1740    51.2470 h1         1 A1H       0.036700
     50 H13         54.8410   -15.4240    52.2150 h1         1 A1H       0.036700
     51 H16         57.0920   -14.5800    51.5690 hc         1 A1H       0.053700
     52 H15         56.3600   -13.3110    50.6000 hc         1 A1H       0.053700
     53 H18         57.0300   -15.0740    49.1100 h1         1 A1H       0.059200
     54 H17         55.2600   -15.0020    49.1460 h1         1 A1H       0.059200
     55 H21         55.1200   -19.2750    50.5750 h1         1 A1H       0.103700
     56 H22         55.9430   -20.1660    49.2370 h1         1 A1H       0.103700
     57 H20         56.9250   -19.3770    50.5310 h1         1 A1H       0.103700
     58 H23         53.6210   -11.4130    50.2970 ha         1 A1H       0.123000
     59 H24         54.9080   -10.0090    48.6800 ha         1 A1H       0.150000
     60 H25         58.5640    -6.9820    47.1670 ha         1 A1H       0.143000
     61 H26         60.3950    -5.6170    46.2720 ha         1 A1H       0.117000
     62 H27         62.5420    -5.4370    47.4960 ha         1 A1H       0.122000
     63 H5          62.5970    -3.8220    51.6040 hc         1 A1H       0.044033
     64 H6          63.0870    -3.3450    49.9680 hc         1 A1H       0.044033
     65 H7          61.6920    -4.3970    50.2180 hc         1 A1H       0.044033
     66 H31         68.6150    -0.1010    54.2730 h4         1 A1H       0.039100
     67 H1          64.5120    -3.4940    51.9660 hn         1 A1H       0.155000
     68 H2          66.7570    -6.4090    51.5490 ha         1 A1H       0.135000
     69 H3          66.0640    -8.4610    50.3930 ha         1 A1H       0.119000
     70 H4          63.8480    -8.5930    49.2880 ha         1 A1H       0.120000
     71 H12         61.1160    -9.3160    50.8550 hc         1 A1H       0.045700
     72 H19         61.9120    -7.9110    51.5690 hc         1 A1H       0.045700
     73 H28         60.1700    -8.0550    51.6650 hc         1 A1H       0.045700
     74 H8          58.8130    -8.7690    50.4420 hn         1 A1H       0.184000
     75 H9          56.9010   -10.9430    53.0870 h4         1 A1H       0.037100
     76 H29         54.5330   -13.9290    53.7880 hn         1 A1H       0.424000
     77 H34         56.9710   -16.9080    50.6310 hn         1 A1H       0.473000
     78 H33         67.3340     1.4830    55.7410 h1         1 A1H       0.041200
     79 H32         65.5830     1.6660    55.5590 h1         1 A1H       0.041200
     80 H39         65.9610     2.5880    53.3680 hn         1 A1H       0.423000
     81 H35         66.7570     4.7360    53.8150 h1         1 A1H       0.045700
     82 H36         65.8430     4.1760    55.2220 h1         1 A1H       0.045700
     83 H37         67.9880     3.5700    56.3750 h1         1 A1H       0.025700
     84 H38         68.9050     4.0540    54.9340 h1         1 A1H       0.025700
     85 H43         68.8240     5.7270    56.5290 ho         1 A1H       0.447000
     86 H40         64.3000     0.1590    54.0560 ha         1 A1H       0.120000
     87 H41         64.3020    -2.0050    52.8590 ha         1 A1H       0.123000
     88 N1          65.2990    -4.0940    51.7590 ns         1 A1H      -0.166000
@<TRIPOS>BOND
     1     1    31 1   
     2     1    32 1   
     3     1    47 1   
     4     1    48 1   
     5     2     3 1   
     6     2    32 1   
     7     2    49 1   
     8     2    50 1   
     9     3     4 1   
    10     3    51 1   
    11     3    52 1   
    12     4    33 1   
    13     4    53 1   
    14     4    54 1   
    15     5    34 1   
    16     5    55 1   
    17     5    56 1   
    18     5    57 1   
    19     6     7 ar  
    20     6    31 ar  
    21     6    58 1   
    22     7    28 ar  
    23     7    59 1   
    24     8     9 ar  
    25     8    25 ar  
    26     8    60 1   
    27     9    10 ar  
    28     9    61 1   
    29    10    22 ar  
    30    10    62 1   
    31    11    12 1   
    32    11    17 ar  
    33    11    21 ar  
    34    12    63 1   
    35    12    64 1   
    36    12    65 1   
    37    13    16 1   
    38    13    38 ar  
    39    13    46 ar  
    40    14    38 ar  
    41    14    39 ar  
    42    14    66 1   
    43    15    16 2   
    44    16    88 1   
    45    17    18 ar  
    46    17    88 1   
    47    18    19 ar  
    48    18    68 1   
    49    19    20 ar  
    50    19    69 1   
    51    20    21 ar  
    52    20    70 1   
    53    21    22 1   
    54    22    23 ar  
    55    23    24 1   
    56    23    25 ar  
    57    24    71 1   
    58    24    72 1   
    59    24    73 1   
    60    25    26 1   
    61    26    27 1   
    62    26    74 1   
    63    27    28 1   
    64    27    37 2   
    65    28    29 ar  
    66    29    30 ar  
    67    30    31 ar  
    68    30    75 1   
    69    32    76 1   
    70    33    34 1   
    71    33    77 1   
    72    34    35 2   
    73    34    36 2   
    74    39    40 1   
    75    39    45 ar  
    76    40    41 1   
    77    40    78 1   
    78    40    79 1   
    79    41    42 1   
    80    41    80 1   
    81    42    43 1   
    82    42    81 1   
    83    42    82 1   
    84    43    44 1   
    85    43    83 1   
    86    43    84 1   
    87    44    85 1   
    88    45    46 ar  
    89    45    86 1   
    90    46    87 1   
    91    67    88 1   
@<TRIPOS>SUBSTRUCTURE
     1 A1H         1 TEMP              0 ****  ****    0 ROOT
