@<TRIPOS>MOLECULE
A1H
   50    50     1     0     0
SMALL
abcg2


@<TRIPOS>ATOM
      1 C4         -15.3810    14.9260   -31.0300 c3         1 A1H      -0.075400
      2 C5         -16.2160    13.7290   -30.5840 c3         1 A1H      -0.073400
      3 C6         -16.1150    13.4160   -29.0930 c3         1 A1H      -0.074400
      4 C7         -16.7490    14.4800   -28.2020 c3         1 A1H      -0.076400
      5 C8         -16.6630    14.1730   -26.7210 c3         1 A1H       0.158600
      6 C10        -19.0810    13.4180   -24.2210 c6         1 A1H       0.216300
      7 C13        -19.2840    11.1240   -25.1860 c6         1 A1H       0.130300
      8 C2         -16.7690    15.6650   -33.0550 c3         1 A1H      -0.078400
      9 C9         -17.1490    12.4340   -25.1960 c6         1 A1H       0.364300
     10 C11        -19.4690    14.3620   -23.0990 c3         1 A1H      -0.348400
     11 C12        -19.7840    12.0640   -24.0950 c6         1 A1H       0.145300
     12 O2         -17.6790    13.2250   -24.1670 os         1 A1H      -0.454000
     13 C14        -17.7650    11.0330   -25.1390 c6         1 A1H       0.118300
     14 C1         -16.7490    15.9500   -34.5510 c3         1 A1H      -0.088100
     15 C3         -15.4190    15.1810   -32.5350 c3         1 A1H      -0.072400
     16 O1         -17.3660    12.9720   -26.4530 os         1 A1H      -0.481000
     17 S1         -19.1910    16.1140   -23.4550 s6         1 A1H       1.323600
     18 O3         -19.9800    16.3870   -24.6740 o          1 A1H      -0.696200
     19 O4         -17.7420    16.3020   -23.6530 o          1 A1H      -0.696200
     20 O5         -19.7040    16.8100   -22.2590 o          1 A1H      -0.696200
     21 O6         -21.1680    12.2810   -24.1980 oh         1 A1H      -0.698000
     22 O7         -19.8930     9.8730   -24.9680 oh         1 A1H      -0.679000
     23 O8         -17.3430    10.2050   -26.1920 oh         1 A1H      -0.717000
     24 H8         -14.3440    14.7580   -30.7230 hc         1 A1H       0.039200
     25 H9         -15.7060    15.8320   -30.5080 hc         1 A1H       0.039200
     26 H10        -17.2680    13.8830   -30.8430 hc         1 A1H       0.032700
     27 H11        -15.8920    12.8500   -31.1520 hc         1 A1H       0.032700
     28 H12        -16.5940    12.4540   -28.9000 hc         1 A1H       0.040200
     29 H13        -15.0620    13.2930   -28.8170 hc         1 A1H       0.040200
     30 H14        -16.2590    15.4450   -28.3550 hc         1 A1H       0.049200
     31 H15        -17.7960    14.6250   -28.4860 hc         1 A1H       0.049200
     32 H16        -15.6110    14.0650   -26.4190 h1         1 A1H       0.049700
     33 H17        -17.0810    15.0030   -26.1410 h1         1 A1H       0.049700
     34 H19        -19.3790    13.8600   -25.1810 h1         1 A1H       0.079700
     35 H25        -19.5870    11.5400   -26.1590 h1         1 A1H       0.070700
     36 H4         -17.0570    16.5710   -32.5130 hc         1 A1H       0.042200
     37 H5         -17.5440    14.9240   -32.8400 hc         1 A1H       0.042200
     38 H18        -16.0710    12.3820   -24.9800 h2         1 A1H       0.050700
     39 H20        -20.5360    14.2720   -22.8930 h1         1 A1H       0.083200
     40 H21        -18.9330    14.1080   -22.1810 h1         1 A1H       0.083200
     41 H23        -19.5210    11.6300   -23.1160 h1         1 A1H       0.037700
     42 H27        -17.4820    10.6070   -24.1650 h1         1 A1H       0.045700
     43 H2         -17.7180    16.3030   -34.9060 hc         1 A1H       0.026367
     44 H3         -16.0090    16.7130   -34.7970 hc         1 A1H       0.026367
     45 H1         -16.4960    15.0530   -35.1190 hc         1 A1H       0.026367
     46 H6         -15.1330    14.2660   -33.0660 hc         1 A1H       0.029700
     47 H7         -14.6600    15.9280   -32.7890 hc         1 A1H       0.029700
     48 H24        -21.6120    11.4310   -24.1150 ho         1 A1H       0.501000
     49 H26        -19.6990     9.3030   -25.7190 ho         1 A1H       0.449000
     50 H28        -16.4390     9.9210   -26.0220 ho         1 A1H       0.498000
@<TRIPOS>BOND
     1     1     2 1   
     2     1    15 1   
     3     1    24 1   
     4     1    25 1   
     5     2     3 1   
     6     2    26 1   
     7     2    27 1   
     8     3     4 1   
     9     3    28 1   
    10     3    29 1   
    11     4     5 1   
    12     4    30 1   
    13     4    31 1   
    14     5    16 1   
    15     5    32 1   
    16     5    33 1   
    17     6    10 1   
    18     6    11 1   
    19     6    12 1   
    20     6    34 1   
    21     7    11 1   
    22     7    13 1   
    23     7    22 1   
    24     7    35 1   
    25     8    14 1   
    26     8    15 1   
    27     8    36 1   
    28     8    37 1   
    29     9    12 1   
    30     9    13 1   
    31     9    16 1   
    32     9    38 1   
    33    10    17 1   
    34    10    39 1   
    35    10    40 1   
    36    11    21 1   
    37    11    41 1   
    38    13    23 1   
    39    13    42 1   
    40    14    43 1   
    41    14    44 1   
    42    14    45 1   
    43    15    46 1   
    44    15    47 1   
    45    17    18 1   
    46    17    19 1   
    47    17    20 1   
    48    21    48 1   
    49    22    49 1   
    50    23    50 1   
@<TRIPOS>SUBSTRUCTURE
     1 A1H         1 TEMP              0 ****  ****    0 ROOT
