@<TRIPOS>MOLECULE
A1H
   64    69     1     0     0
SMALL
No Charge or Current Charge


@<TRIPOS>ATOM
      1 C3          38.2210    -1.7250     0.7550 ca         1 A1H      -0.104000
      2 C4          39.5360    -2.2010     0.5960 ca         1 A1H      -0.082300
      3 C5          40.7240    -1.3280     0.9750 c3         1 A1H       0.205100
      4 C8          43.1410     0.8160    -1.2180 cy         1 A1H      -0.082900
      5 C11         45.3110     3.1710    -0.3850 c6         1 A1H       0.190800
      6 C15         46.1120     3.9590    -4.4290 ca         1 A1H       0.032000
      7 C16         45.1520     4.3980    -5.3540 ca         1 A1H      -0.219000
      8 C18         43.6220     4.9560    -7.1100 cc         1 A1H       0.431200
      9 C21         44.2440     5.3940    -5.0530 ca         1 A1H       0.142400
     10 C22         44.2650     6.0000    -3.7880 ca         1 A1H      -0.071000
     11 C23         45.2140     5.5830    -2.8340 ca         1 A1H      -0.029000
     12 C26         46.2540     1.5500    -1.9730 c6         1 A1H       0.190800
     13 C28         43.7690    -0.4230     0.4300 cy         1 A1H      -0.082900
     14 C29         39.7410    -3.4960     0.0890 ca         1 A1H      -0.086000
     15 C30         38.6450    -4.3030    -0.2580 ca         1 A1H      -0.100000
     16 C31         37.3150    -3.8380    -0.1150 cp         1 A1H      -0.022000
     17 C32         36.1790    -4.7290    -0.5020 cp         1 A1H      -0.042000
     18 C35         34.0540    -6.4530    -1.2540 ca         1 A1H      -0.103000
     19 Cl1         35.5080    -1.8690     0.6920 cl         1 A1H      -0.201000
     20 C2          37.1200    -2.5290     0.4070 ca         1 A1H       0.128000
     21 N6          41.2690    -0.6570    -0.2180 n7         1 A1H      -0.851400
     22 C7          42.3960     0.2190     0.0250 cy         1 A1H       0.148500
     23 C9          44.4470     0.7550    -0.3480 cy         1 A1H      -0.068000
     24 C10         44.7440     2.0320     0.4970 c6         1 A1H      -0.058900
     25 N12         46.5290     2.7430    -1.1260 n3         1 A1H      -0.708500
     26 S13         47.3450     4.0090    -1.9310 sy         1 A1H       1.146600
     27 C14         46.1370     4.5560    -3.1510 ca         1 A1H      -0.293500
     28 S17         44.9480     3.7810    -6.9860 ss         1 A1H       0.095800
     29 N20         43.3440     5.7370    -6.0550 nd         1 A1H      -0.524100
     30 O24         48.4890     3.3910    -2.6120 o          1 A1H      -0.530500
     31 O25         47.5530     5.0620    -0.9300 o          1 A1H      -0.530500
     32 C27         45.7250     0.3620    -1.1340 c6         1 A1H      -0.058900
     33 C33         36.0950    -6.0470     0.0080 ca         1 A1H      -0.089500
     34 C34         35.0410    -6.9010    -0.3610 ca         1 A1H      -0.113000
     35 C36         34.1260    -5.1530    -1.7820 ca         1 A1H      -0.113000
     36 C37         35.1810    -4.3010    -1.4120 ca         1 A1H      -0.089500
     37 H1          38.0480    -0.7300     1.1560 ha         1 A1H       0.126000
     38 H2          41.4920    -1.9570     1.4490 h1         1 A1H       0.040200
     39 H3          40.4040    -0.5880     1.7210 h1         1 A1H       0.040200
     40 H4          42.8130     1.8100    -1.5370 hc         1 A1H       0.059200
     41 H5          43.1460     0.1560    -2.0930 hc         1 A1H       0.059200
     42 H6          45.5350     4.0250     0.2710 h1         1 A1H       0.054450
     43 H7          44.5300     3.5010    -1.0850 h1         1 A1H       0.054450
     44 H8          46.8140     3.1710    -4.6990 ha         1 A1H       0.148000
     45 H9          43.5540     6.7850    -3.5470 ha         1 A1H       0.141000
     46 H10         45.2270     6.0560    -1.8540 ha         1 A1H       0.140000
     47 H11         45.5150     1.7910    -2.7520 h1         1 A1H       0.054450
     48 H12         47.1670     1.2170    -2.4880 h1         1 A1H       0.054450
     49 H13         43.9420    -1.4150    -0.0030 hc         1 A1H       0.059200
     50 H14         43.9720    -0.4740     1.5050 hc         1 A1H       0.059200
     51 H15         40.7530    -3.8750    -0.0410 ha         1 A1H       0.130000
     52 H16         38.8250    -5.3000    -0.6550 ha         1 A1H       0.122000
     53 H17         33.2380    -7.1130    -1.5410 ha         1 A1H       0.113000
     54 H18         40.5110    -0.1080    -0.6390 hn         1 A1H       0.417000
     55 H20         42.0780     1.0000     0.7280 h1         1 A1H       0.027700
     56 H21         45.4750     1.7920     1.2810 hc         1 A1H       0.056950
     57 H22         43.8470     2.3910     1.0170 hc         1 A1H       0.056950
     58 H23         45.5290    -0.4950    -1.7920 hc         1 A1H       0.056950
     59 H24         46.5080     0.0400    -0.4330 hc         1 A1H       0.056950
     60 H25         36.8520    -6.4060     0.7020 ha         1 A1H       0.117000
     61 H26         34.9890    -7.9080     0.0460 ha         1 A1H       0.114000
     62 H27         33.3670    -4.8060    -2.4800 ha         1 A1H       0.114000
     63 H28         35.2320    -3.3020    -1.8390 ha         1 A1H       0.117000
     64 Cl19        42.7230     5.0610    -8.5910 cl         1 A1H      -0.042300
@<TRIPOS>BOND
     1     1     2 ar  
     2     1    20 ar  
     3     1    37 1   
     4     2     3 1   
     5     2    14 ar  
     6     3    21 1   
     7     3    38 1   
     8     3    39 1   
     9     4    22 1   
    10     4    23 1   
    11     4    40 1   
    12     4    41 1   
    13     5    24 1   
    14     5    25 1   
    15     5    42 1   
    16     5    43 1   
    17     6     7 ar  
    18     6    27 ar  
    19     6    44 1   
    20     7     9 ar  
    21     7    28 1   
    22     8    28 1   
    23     8    29 2   
    24     8    64 1   
    25     9    10 ar  
    26     9    29 1   
    27    10    11 ar  
    28    10    45 1   
    29    11    27 ar  
    30    11    46 1   
    31    12    25 1   
    32    12    32 1   
    33    12    47 1   
    34    12    48 1   
    35    13    22 1   
    36    13    23 1   
    37    13    49 1   
    38    13    50 1   
    39    14    15 ar  
    40    14    51 1   
    41    15    16 ar  
    42    15    52 1   
    43    16    17 1   
    44    16    20 ar  
    45    17    33 ar  
    46    17    36 ar  
    47    18    34 ar  
    48    18    35 ar  
    49    18    53 1   
    50    19    20 1   
    51    21    22 1   
    52    21    54 1   
    53    22    55 1   
    54    23    24 1   
    55    23    32 1   
    56    24    56 1   
    57    24    57 1   
    58    25    26 1   
    59    26    27 1   
    60    26    30 2   
    61    26    31 2   
    62    32    58 1   
    63    32    59 1   
    64    33    34 ar  
    65    33    60 1   
    66    34    61 1   
    67    35    36 ar  
    68    35    62 1   
    69    36    63 1   
@<TRIPOS>SUBSTRUCTURE
     1 A1H         1 TEMP              0 ****  ****    0 ROOT
