@<TRIPOS>MOLECULE
A1H
   67    72     1     0     0
SMALL
abcg2


@<TRIPOS>ATOM
      1 C2           3.6880    38.1810    31.9620 ca         1 A1H       0.129000
      2 C3           3.1180    39.4430    32.0590 ca         1 A1H      -0.105000
      3 C4           2.6320    40.0850    30.9280 ca         1 A1H      -0.082300
      4 C5           2.0240    41.4590    31.0340 c3         1 A1H       0.208100
      5 C7           0.2180    42.8710    30.2790 cy         1 A1H       0.154500
      6 C8          -0.4130    43.4470    31.5710 cy         1 A1H      -0.101400
      7 C9          -1.5860    43.9760    30.7210 cy         1 A1H      -0.067000
      8 C10         -1.4360    45.4460    30.3510 c6         1 A1H      -0.058400
      9 C11         -2.5250    45.9020    29.3920 c6         1 A1H       0.188800
     10 C14         -5.3270    45.6650    27.6680 ca         1 A1H      -0.298500
     11 C15         -4.6220    46.1920    26.5980 ca         1 A1H       0.031000
     12 C16         -4.7450    45.5450    25.3780 ca         1 A1H      -0.213000
     13 C18         -4.8280    44.5560    23.1500 cc         1 A1H       0.421200
     14 C19         -4.6330    44.2460    21.7110 c3         1 A1H      -0.124400
     15 C21         -5.5520    44.4050    25.2200 ca         1 A1H       0.141400
     16 C22         -6.2550    43.9020    26.3140 ca         1 A1H      -0.075000
     17 C23         -6.1410    44.5330    27.5350 ca         1 A1H      -0.030000
     18 CL1          4.3160    37.4650    33.4140 cl         1 A1H      -0.201000
     19 N6           0.8050    41.5580    30.2560 n7         1 A1H      -0.849400
     20 N12         -3.8440    45.6300    29.9740 n3         1 A1H      -0.704500
     21 S13         -5.1270    46.4030    29.2690 sy         1 A1H       1.143600
     22 S17         -4.0120    45.9320    23.8620 ss         1 A1H       0.028800
     23 N20         -5.5710    43.8790    23.9530 nd         1 A1H      -0.543100
     24 O24         -6.3070    46.0890    30.0580 o          1 A1H      -0.531500
     25 O25         -4.7470    47.7930    29.0810 o          1 A1H      -0.531500
     26 C26         -4.0490    44.2140    30.2980 c6         1 A1H       0.188800
     27 C27         -2.9810    43.7560    31.2770 c6         1 A1H      -0.058400
     28 C28         -1.1430    43.0210    29.5850 cy         1 A1H      -0.101400
     29 C29          2.7340    39.4360    29.7010 ca         1 A1H      -0.088000
     30 C30          3.3020    38.1770    29.6190 ca         1 A1H      -0.099000
     31 C31          3.7850    37.5100    30.7470 cp         1 A1H      -0.024000
     32 C32          4.3590    36.1540    30.6060 cp         1 A1H      -0.042000
     33 C33          3.7970    35.0650    31.2710 ca         1 A1H      -0.089500
     34 C34          4.3170    33.7910    31.1000 ca         1 A1H      -0.113000
     35 C35          5.4090    33.5880    30.2650 ca         1 A1H      -0.103000
     36 C36          5.9740    34.6660    29.5980 ca         1 A1H      -0.113000
     37 C37          5.4490    35.9410    29.7650 ca         1 A1H      -0.089500
     38 H1           3.0550    39.9290    33.0250 ha         1 A1H       0.126000
     39 H2           2.7340    42.1940    30.6400 h1         1 A1H       0.041200
     40 H3           1.8870    41.7110    32.0950 h1         1 A1H       0.041200
     41 H4           0.9460    43.5750    29.8650 h1         1 A1H       0.067700
     42 H5          -0.7340    42.6470    32.2450 hc         1 A1H       0.055700
     43 H6           0.1600    44.1790    32.1450 hc         1 A1H       0.055700
     44 H7          -0.4670    45.6390    29.8820 hc         1 A1H       0.055450
     45 H8          -1.4750    46.0560    31.2590 hc         1 A1H       0.055450
     46 H9          -2.4150    45.3860    28.4290 h1         1 A1H       0.054950
     47 H10         -2.4230    46.9700    29.2090 h1         1 A1H       0.054950
     48 H11         -4.0030    47.0740    26.7030 ha         1 A1H       0.145000
     49 H12         -4.9920    45.0640    21.0850 hc         1 A1H       0.065700
     50 H13         -3.5780    44.0970    21.4830 hc         1 A1H       0.065700
     51 H14         -5.1800    43.3420    21.4530 hc         1 A1H       0.065700
     52 H15         -6.8850    43.0300    26.1990 ha         1 A1H       0.138000
     53 H16         -6.6910    44.1530    28.3840 ha         1 A1H       0.139000
     54 H17          0.1320    40.8850    30.6070 hn         1 A1H       0.413000
     55 H19         -5.0340    44.0820    30.7410 h1         1 A1H       0.054950
     56 H20         -4.0070    43.6010    29.3870 h1         1 A1H       0.054950
     57 H21         -3.0960    44.2990    32.2200 hc         1 A1H       0.055450
     58 H22         -3.1420    42.6970    31.4920 hc         1 A1H       0.055450
     59 H23         -1.1480    43.3950    28.5600 hc         1 A1H       0.055700
     60 H24         -1.7070    42.0840    29.6090 hc         1 A1H       0.055700
     61 H25          2.3580    39.9150    28.8060 ha         1 A1H       0.133000
     62 H26          3.3630    37.6800    28.6580 ha         1 A1H       0.121000
     63 H27          2.9390    35.2120    31.9160 ha         1 A1H       0.116500
     64 H28          3.8650    32.9540    31.6170 ha         1 A1H       0.113500
     65 H29          5.8150    32.5930    30.1340 ha         1 A1H       0.113000
     66 H30          6.8250    34.5170    28.9460 ha         1 A1H       0.113500
     67 H31          5.8960    36.7790    29.2450 ha         1 A1H       0.116500
@<TRIPOS>BOND
     1     1     2 ar  
     2     1    18 1   
     3     1    31 ar  
     4     2     3 ar  
     5     2    38 1   
     6     3     4 1   
     7     3    29 ar  
     8     4    19 1   
     9     4    39 1   
    10     4    40 1   
    11     5     6 1   
    12     5    19 1   
    13     5    28 1   
    14     5    41 1   
    15     6     7 1   
    16     6    42 1   
    17     6    43 1   
    18     7     8 1   
    19     7    27 1   
    20     7    28 1   
    21     8     9 1   
    22     8    44 1   
    23     8    45 1   
    24     9    20 1   
    25     9    46 1   
    26     9    47 1   
    27    10    11 ar  
    28    10    17 ar  
    29    10    21 1   
    30    11    12 ar  
    31    11    48 1   
    32    12    15 ar  
    33    12    22 1   
    34    13    14 1   
    35    13    22 1   
    36    13    23 2   
    37    14    49 1   
    38    14    50 1   
    39    14    51 1   
    40    15    16 ar  
    41    15    23 1   
    42    16    17 ar  
    43    16    52 1   
    44    17    53 1   
    45    19    54 1   
    46    20    21 1   
    47    20    26 1   
    48    21    24 2   
    49    21    25 2   
    50    26    27 1   
    51    26    55 1   
    52    26    56 1   
    53    27    57 1   
    54    27    58 1   
    55    28    59 1   
    56    28    60 1   
    57    29    30 ar  
    58    29    61 1   
    59    30    31 ar  
    60    30    62 1   
    61    31    32 1   
    62    32    33 ar  
    63    32    37 ar  
    64    33    34 ar  
    65    33    63 1   
    66    34    35 ar  
    67    34    64 1   
    68    35    36 ar  
    69    35    65 1   
    70    36    37 ar  
    71    36    66 1   
    72    37    67 1   
@<TRIPOS>SUBSTRUCTURE
     1 A1H         1 TEMP              0 ****  ****    0 ROOT
