@<TRIPOS>MOLECULE
A1H
   67    72     1     0     0
SMALL
No Charge or Current Charge


@<TRIPOS>ATOM
      1 C2           3.0220    37.9390    31.7300 ca         1 A1H       0.129000
      2 C3           2.4780    39.2330    31.8070 ca         1 A1H      -0.105000
      3 C4           2.6520    40.1500    30.7540 ca         1 A1H      -0.082300
      4 C5           2.0620    41.5500    30.8440 c3         1 A1H       0.208100
      5 C7           0.0790    42.8790    30.2120 cy         1 A1H       0.154500
      6 C8          -0.5040    43.3620    31.5860 cy         1 A1H      -0.101400
      7 C9          -1.6460    44.0430    30.7600 cy         1 A1H      -0.067000
      8 C10         -1.3660    45.5100    30.3120 c6         1 A1H      -0.058400
      9 C11         -2.5040    46.0520    29.4130 c6         1 A1H       0.188800
     10 C14         -5.2700    45.7650    27.7500 ca         1 A1H      -0.298500
     11 C15         -4.5110    46.0970    26.6080 ca         1 A1H       0.031000
     12 C16         -4.6560    45.3090    25.4570 ca         1 A1H      -0.213000
     13 C18         -4.7080    44.1290    23.3660 cc         1 A1H       0.421200
     14 C19         -4.5030    43.6400    21.9630 c3         1 A1H      -0.124400
     15 C21         -5.5160    44.2320    25.4080 ca         1 A1H       0.141400
     16 C22         -6.2820    43.8970    26.5340 ca         1 A1H      -0.075000
     17 C23         -6.1610    44.6660    27.7090 ca         1 A1H      -0.030000
     18 Cl1          2.7980    36.8760    33.1210 cl         1 A1H      -0.201000
     19 N6           0.7540    41.5990    30.1660 n7         1 A1H      -0.849400
     20 N12         -3.8310    45.9560    30.0820 n3         1 A1H      -0.704500
     21 S13         -5.1000    46.7440    29.2540 sy         1 A1H       1.143600
     22 S17         -3.8010    45.5470    23.9420 ss         1 A1H       0.028800
     23 N20         -5.5660    43.5330    24.2070 nd         1 A1H      -0.543100
     24 O24         -6.2960    46.5840    30.0900 o          1 A1H      -0.531500
     25 O25         -4.6000    48.0820    28.9160 o          1 A1H      -0.531500
     26 C26         -4.1350    44.5540    30.4780 c6         1 A1H       0.188800
     27 C27         -3.0490    43.9760    31.4170 c6         1 A1H      -0.058400
     28 C28         -1.3880    42.9470    29.6650 cy         1 A1H      -0.101400
     29 C29          3.3840    39.7600    29.6180 ca         1 A1H      -0.088000
     30 C30          3.9310    38.4690    29.5370 ca         1 A1H      -0.099000
     31 C31          3.7570    37.5300    30.5830 cp         1 A1H      -0.024000
     32 C32          4.3520    36.1650    30.4510 cp         1 A1H      -0.042000
     33 C33          3.5650    34.9970    30.6070 ca         1 A1H      -0.089500
     34 C34          4.1320    33.7180    30.4640 ca         1 A1H      -0.113000
     35 C35          5.4950    33.5840    30.1550 ca         1 A1H      -0.103000
     36 C36          6.2900    34.7290    29.9840 ca         1 A1H      -0.113000
     37 C37          5.7220    36.0070    30.1270 ca         1 A1H      -0.089500
     38 H1           1.9220    39.5250    32.6950 ha         1 A1H       0.126000
     39 H2           2.7600    42.2650    30.3870 h1         1 A1H       0.041200
     40 H3           1.9590    41.8270    31.9030 h1         1 A1H       0.041200
     41 H4           0.7270    43.6330    29.7450 h1         1 A1H       0.067700
     42 H5          -0.8390    42.5500    32.2430 hc         1 A1H       0.055700
     43 H6           0.1390    44.0330    32.1660 hc         1 A1H       0.055700
     44 H7          -0.4120    45.5940    29.7760 hc         1 A1H       0.055450
     45 H8          -1.2750    46.1530    31.1980 hc         1 A1H       0.055450
     46 H9          -2.5080    45.4910    28.4670 h1         1 A1H       0.054950
     47 H10         -2.2670    47.0970    29.1650 h1         1 A1H       0.054950
     48 H11         -3.8220    46.9410    26.6120 ha         1 A1H       0.145000
     49 H12         -5.0500    44.2710    21.2530 hc         1 A1H       0.065700
     50 H13         -3.4410    43.6660    21.6950 hc         1 A1H       0.065700
     51 H14         -4.8570    42.6090    21.8460 hc         1 A1H       0.065700
     52 H15         -6.9630    43.0510    26.5000 ha         1 A1H       0.138000
     53 H16         -6.7570    44.4010    28.5810 ha         1 A1H       0.139000
     54 H17          0.1500    40.8950    30.6030 hn         1 A1H       0.413000
     55 H19         -5.1000    44.4970    31.0030 h1         1 A1H       0.054950
     56 H20         -4.2140    43.9100    29.5890 h1         1 A1H       0.054950
     57 H21         -3.0470    44.5440    32.3570 hc         1 A1H       0.055450
     58 H22         -3.3060    42.9420    31.6820 hc         1 A1H       0.055450
     59 H23         -1.4910    43.2650    28.6230 hc         1 A1H       0.055700
     60 H24         -1.9610    42.0230    29.8020 hc         1 A1H       0.055700
     61 H25          3.5250    40.4580    28.7960 ha         1 A1H       0.133000
     62 H26          4.4880    38.1840    28.6470 ha         1 A1H       0.121000
     63 H27          2.5050    35.0860    30.8320 ha         1 A1H       0.116500
     64 H28          3.5120    32.8330    30.5890 ha         1 A1H       0.113500
     65 H29          5.9340    32.5940    30.0440 ha         1 A1H       0.113000
     66 H30          7.3450    34.6270    29.7410 ha         1 A1H       0.113500
     67 H31          6.3480    36.8860    29.9940 ha         1 A1H       0.116500
@<TRIPOS>BOND
     1     1     2 ar  
     2     1    18 1   
     3     1    31 ar  
     4     2     3 ar  
     5     2    38 1   
     6     3     4 1   
     7     3    29 ar  
     8     4    19 1   
     9     4    39 1   
    10     4    40 1   
    11     5     6 1   
    12     5    19 1   
    13     5    28 1   
    14     5    41 1   
    15     6     7 1   
    16     6    42 1   
    17     6    43 1   
    18     7     8 1   
    19     7    27 1   
    20     7    28 1   
    21     8     9 1   
    22     8    44 1   
    23     8    45 1   
    24     9    20 1   
    25     9    46 1   
    26     9    47 1   
    27    10    11 ar  
    28    10    17 ar  
    29    10    21 1   
    30    11    12 ar  
    31    11    48 1   
    32    12    15 ar  
    33    12    22 1   
    34    13    14 1   
    35    13    22 1   
    36    13    23 2   
    37    14    49 1   
    38    14    50 1   
    39    14    51 1   
    40    15    16 ar  
    41    15    23 1   
    42    16    17 ar  
    43    16    52 1   
    44    17    53 1   
    45    19    54 1   
    46    20    21 1   
    47    20    26 1   
    48    21    24 2   
    49    21    25 2   
    50    26    27 1   
    51    26    55 1   
    52    26    56 1   
    53    27    57 1   
    54    27    58 1   
    55    28    59 1   
    56    28    60 1   
    57    29    30 ar  
    58    29    61 1   
    59    30    31 ar  
    60    30    62 1   
    61    31    32 1   
    62    32    33 ar  
    63    32    37 ar  
    64    33    34 ar  
    65    33    63 1   
    66    34    35 ar  
    67    34    64 1   
    68    35    36 ar  
    69    35    65 1   
    70    36    37 ar  
    71    36    66 1   
    72    37    67 1   
@<TRIPOS>SUBSTRUCTURE
     1 A1H         1 TEMP              0 ****  ****    0 ROOT
