@<TRIPOS>MOLECULE
A1H
   59    62     1     0     0
SMALL
abcg2


@<TRIPOS>ATOM
      1 C1           2.6730    38.2090    33.5210 ca         1 A1H      -0.083000
      2 O1          -3.3430    46.3690    30.1590 o          1 A1H      -0.531000
      3 C7          -1.0810    43.8590    31.9800 c3         1 A1H       0.202800
      4 C8          -4.1440    44.0850    31.2260 ca         1 A1H      -0.303500
      5 C9          -4.7510    43.6900    32.3890 ca         1 A1H       0.026000
      6 C10         -5.5800    42.5540    32.4250 ca         1 A1H      -0.143000
      7 C11         -5.7770    41.8220    31.2900 ca         1 A1H      -0.023000
      8 C12         -5.1590    42.2050    30.0800 ca         1 A1H      -0.125000
      9 C13         -4.3290    43.3520    30.0200 ca         1 A1H       0.068000
     10 C19          4.0020    36.1850    33.2870 cp         1 A1H      -0.023000
     11 C20          4.3580    34.8000    33.6620 cp         1 A1H      -0.041000
     12 C21          4.7850    34.4820    34.9500 ca         1 A1H      -0.089500
     13 C23          5.0960    32.1830    34.3080 ca         1 A1H      -0.103000
     14 C24          4.6760    32.4910    33.0220 ca         1 A1H      -0.113500
     15 C2           3.3710    38.8210    32.4830 ca         1 A1H      -0.080300
     16 C3           2.9990    40.2060    32.0290 c3         1 A1H       0.202100
     17 C4           2.4570    42.4590    32.7170 c3         1 A1H       0.164800
     18 C5           0.9360    42.5200    32.6480 c3         1 A1H      -0.080400
     19 C6           0.4370    43.7860    31.9680 c3         1 A1H      -0.080400
     20 S           -3.0750    45.5090    31.3000 sy         1 A1H       1.151600
     21 O           -3.1830    46.0510    32.6430 o          1 A1H      -0.531000
     22 C14         -3.7600    43.6490    28.7600 ca         1 A1H      -0.178000
     23 C15         -4.0250    42.8350    27.6940 ca         1 A1H       0.350900
     24 N2          -4.8130    41.7420    27.7490 nb         1 A1H      -0.664000
     25 C16         -5.3530    41.4510    28.8990 ca         1 A1H       0.374900
     26 N1          -1.5400    44.9500    31.1220 n7         1 A1H      -0.870300
     27 N            2.9290    41.1460    33.1310 n7         1 A1H      -0.864400
     28 C17          4.3870    38.1100    31.8580 ca         1 A1H      -0.108000
     29 C18          4.6910    36.8170    32.2540 ca         1 A1H      -0.097000
     30 C            2.9850    36.9160    33.9040 ca         1 A1H       0.127000
     31 CL           2.0260    36.1930    35.1590 cl         1 A1H      -0.201000
     32 C25          4.3120    33.7920    32.7010 ca         1 A1H      -0.089500
     33 C22          5.1530    33.1840    35.2700 ca         1 A1H      -0.113500
     34 H1           1.8750    38.7430    34.0210 ha         1 A1H       0.142000
     35 H2          -1.4330    44.0410    32.9960 h1         1 A1H       0.050700
     36 H3          -1.5060    42.9030    31.6550 h1         1 A1H       0.050700
     37 H4          -4.6000    44.2520    33.3000 ha         1 A1H       0.146000
     38 H5          -6.0480    42.2690    33.3560 ha         1 A1H       0.127000
     39 H6          -6.4070    40.9410    31.3010 ha         1 A1H       0.122000
     40 H7           4.8460    35.2560    35.7050 ha         1 A1H       0.116500
     41 H8           5.3790    31.1690    34.5600 ha         1 A1H       0.113000
     42 H9           4.6280    31.7180    32.2650 ha         1 A1H       0.113500
     43 H10          2.0160    40.1580    31.5510 h1         1 A1H       0.037700
     44 H11          3.6980    40.5250    31.2410 h1         1 A1H       0.037700
     45 H12          2.8820    42.7590    31.7450 h1         1 A1H       0.031700
     46 H13          2.8100    43.1930    33.4440 h1         1 A1H       0.031700
     47 H14          0.5310    42.4450    33.6610 hc         1 A1H       0.048700
     48 H15          0.5520    41.6540    32.0990 hc         1 A1H       0.048700
     49 H16          0.7940    43.8030    30.9330 hc         1 A1H       0.051200
     50 H17          0.8470    44.6750    32.4560 hc         1 A1H       0.051200
     51 H18         -3.1340    44.5120    28.5990 ha         1 A1H       0.136000
     52 H19         -3.5910    43.0600    26.7270 h4         1 A1H       0.024100
     53 H20         -5.9900    40.5720    28.9440 h4         1 A1H       0.021100
     54 H21         -1.2770    44.8390    30.1480 hn         1 A1H       0.482000
     55 H22          3.8510    41.2340    33.5370 hn         1 A1H       0.418000
     56 H24          4.9510    38.5670    31.0540 ha         1 A1H       0.115000
     57 H25          5.4930    36.2820    31.7610 ha         1 A1H       0.121000
     58 H26          3.9810    34.0240    31.6960 ha         1 A1H       0.116500
     59 H27          5.4890    32.9540    36.2730 ha         1 A1H       0.113500
@<TRIPOS>BOND
     1     1    15 ar  
     2     1    30 ar  
     3     1    34 1   
     4     2    20 2   
     5     3    19 1   
     6     3    26 1   
     7     3    35 1   
     8     3    36 1   
     9     4     5 ar  
    10     4     9 ar  
    11     4    20 1   
    12     5     6 ar  
    13     5    37 1   
    14     6     7 ar  
    15     6    38 1   
    16     7     8 ar  
    17     7    39 1   
    18     8     9 ar  
    19     8    25 ar  
    20     9    22 ar  
    21    10    11 1   
    22    10    29 ar  
    23    10    30 ar  
    24    11    12 ar  
    25    11    32 ar  
    26    12    33 ar  
    27    12    40 1   
    28    13    14 ar  
    29    13    33 ar  
    30    13    41 1   
    31    14    32 ar  
    32    14    42 1   
    33    15    16 1   
    34    15    28 ar  
    35    16    27 1   
    36    16    43 1   
    37    16    44 1   
    38    17    18 1   
    39    17    27 1   
    40    17    45 1   
    41    17    46 1   
    42    18    19 1   
    43    18    47 1   
    44    18    48 1   
    45    19    49 1   
    46    19    50 1   
    47    20    21 2   
    48    20    26 1   
    49    22    23 ar  
    50    22    51 1   
    51    23    24 ar  
    52    23    52 1   
    53    24    25 ar  
    54    25    53 1   
    55    26    54 1   
    56    27    55 1   
    57    28    29 ar  
    58    28    56 1   
    59    29    57 1   
    60    30    31 1   
    61    32    58 1   
    62    33    59 1   
@<TRIPOS>SUBSTRUCTURE
     1 A1H         1 TEMP              0 ****  ****    0 ROOT
