@<TRIPOS>MOLECULE
A1H
   66    68     1     0     0
SMALL
No Charge or Current Charge


@<TRIPOS>ATOM
      1 C1         124.8910   135.7220   160.1740 c3         1 A1H      -0.089100
      2 C2         126.1510   135.9600   161.0320 c3         1 A1H      -0.073400
      3 C3         127.4300   135.2740   160.4970 c3         1 A1H      -0.073400
      4 C4         127.3790   133.7280   160.5120 c3         1 A1H      -0.075400
      5 C5         128.7000   133.0780   160.0460 c3         1 A1H      -0.076400
      6 C6         128.6460   131.5280   160.0610 c3         1 A1H      -0.064400
      7 C7         129.9720   130.8000   159.6570 c3         1 A1H       0.002300
      8 C8         129.7690   129.2690   159.8220 c3         1 A1H      -0.083100
      9 C9         130.2630   131.0680   158.1500 c3         1 A1H      -0.083100
     10 C10        131.1330   131.2470   160.5890 ca         1 A1H       0.001700
     11 C11        132.3510   131.7670   160.1010 ca         1 A1H      -0.180000
     12 C12        133.3760   132.1630   160.9720 ca         1 A1H       0.181100
     13 C15        133.8640   133.6040   164.4380 c6         1 A1H      -0.038200
     14 C16        135.0230   134.2440   165.2090 c2         1 A1H      -0.123400
     15 C17        136.2910   134.2050   164.7560 c2         1 A1H      -0.208200
     16 C18        136.6960   133.5640   163.4370 c6         1 A1H      -0.033200
     17 C19        135.4610   133.3450   162.5180 c6         1 A1H      -0.087700
     18 C20        135.7630   132.6290   161.1710 c6         1 A1H       0.198000
     19 C23        134.6300   134.9350   166.5030 c3         1 A1H       0.201800
     20 C24        132.0220   131.5080   162.8630 ca         1 A1H       0.176100
     21 C25        131.0060   131.1050   161.9860 ca         1 A1H      -0.183000
     22 C13        133.2100   132.1010   162.3780 ca         1 A1H      -0.248300
     23 C14        134.3370   132.6230   163.3140 c6         1 A1H       0.003600
     24 C21        136.7840   133.4120   160.2960 c3         1 A1H      -0.099600
     25 C22        136.2690   131.1590   161.3120 c3         1 A1H      -0.099600
     26 O1         134.5520   132.5920   160.3950 os         1 A1H      -0.352100
     27 O2         134.7130   134.0100   167.5910 oh         1 A1H      -0.659000
     28 O3         131.8410   131.2620   164.1870 oh         1 A1H      -0.547100
     29 H1         124.0500   136.3050   160.5660 hc         1 A1H       0.030367
     30 H2         125.0650   136.0270   159.1360 hc         1 A1H       0.030367
     31 H3         124.6010   134.6640   160.1830 hc         1 A1H       0.030367
     32 H4         125.9590   135.6240   162.0590 hc         1 A1H       0.036200
     33 H5         126.3340   137.0410   161.0870 hc         1 A1H       0.036200
     34 H6         128.2800   135.6040   161.1070 hc         1 A1H       0.036700
     35 H7         127.6250   135.6210   159.4750 hc         1 A1H       0.036700
     36 H8         127.1480   133.3850   161.5290 hc         1 A1H       0.036700
     37 H9         126.5660   133.3810   159.8630 hc         1 A1H       0.036700
     38 H10        128.9250   133.4320   159.0330 hc         1 A1H       0.043200
     39 H11        129.5130   133.4250   160.6950 hc         1 A1H       0.043200
     40 H12        128.3400   131.2040   161.0630 hc         1 A1H       0.038700
     41 H13        127.8410   131.2020   159.3890 hc         1 A1H       0.038700
     42 H14        129.4860   129.0070   160.8480 hc         1 A1H       0.036367
     43 H15        128.9770   128.9030   159.1570 hc         1 A1H       0.036367
     44 H16        130.6910   128.7280   159.5800 hc         1 A1H       0.036367
     45 H17        131.1210   130.4770   157.8050 hc         1 A1H       0.036367
     46 H18        129.4020   130.7880   157.5300 hc         1 A1H       0.036367
     47 H19        130.4800   132.1250   157.9590 hc         1 A1H       0.036367
     48 H20        132.5390   131.8610   159.0380 ha         1 A1H       0.129000
     49 H21        133.2400   134.3970   164.0020 hc         1 A1H       0.060700
     50 H22        133.2310   133.0840   165.1650 hc         1 A1H       0.060700
     51 H23        137.0960   134.6700   165.3280 ha         1 A1H       0.173000
     52 H24        137.2070   132.6140   163.6430 hc         1 A1H       0.051700
     53 H25        137.4270   134.2140   162.9370 hc         1 A1H       0.051700
     54 H26        135.0820   134.3430   162.2520 hc         1 A1H       0.066700
     55 H27        135.2970   135.7890   166.6800 h1         1 A1H       0.025200
     56 H28        133.6090   135.3310   166.4180 h1         1 A1H       0.025200
     57 H29        130.1080   130.6660   162.4090 ha         1 A1H       0.128000
     58 H30        134.7830   131.7470   163.8060 hc         1 A1H       0.053700
     59 H31        137.7880   133.3970   160.7340 hc         1 A1H       0.046533
     60 H32        136.8610   132.9790   159.2920 hc         1 A1H       0.046533
     61 H33        136.4860   134.4620   160.1810 hc         1 A1H       0.046533
     62 H34        135.5760   130.5340   161.8860 hc         1 A1H       0.046533
     63 H35        136.3870   130.6890   160.3280 hc         1 A1H       0.046533
     64 H36        137.2430   131.1150   161.8110 hc         1 A1H       0.046533
     65 H37        134.4690   134.5070   168.4030 ho         1 A1H       0.443000
     66 H38        132.6890   131.4430   164.6390 ho         1 A1H       0.470000
@<TRIPOS>BOND
     1     1     2 1   
     2     1    29 1   
     3     1    30 1   
     4     1    31 1   
     5     2     3 1   
     6     2    32 1   
     7     2    33 1   
     8     3     4 1   
     9     3    34 1   
    10     3    35 1   
    11     4     5 1   
    12     4    36 1   
    13     4    37 1   
    14     5     6 1   
    15     5    38 1   
    16     5    39 1   
    17     6     7 1   
    18     6    40 1   
    19     6    41 1   
    20     7     8 1   
    21     7     9 1   
    22     7    10 1   
    23     8    42 1   
    24     8    43 1   
    25     8    44 1   
    26     9    45 1   
    27     9    46 1   
    28     9    47 1   
    29    10    11 ar  
    30    10    21 ar  
    31    11    12 ar  
    32    11    48 1   
    33    12    22 ar  
    34    12    26 1   
    35    13    14 1   
    36    13    23 1   
    37    13    49 1   
    38    13    50 1   
    39    14    15 2   
    40    14    19 1   
    41    15    16 1   
    42    15    51 1   
    43    16    17 1   
    44    16    52 1   
    45    16    53 1   
    46    17    18 1   
    47    17    23 1   
    48    17    54 1   
    49    18    24 1   
    50    18    25 1   
    51    18    26 1   
    52    19    27 1   
    53    19    55 1   
    54    19    56 1   
    55    20    21 ar  
    56    20    22 ar  
    57    20    28 1   
    58    21    57 1   
    59    22    23 1   
    60    23    58 1   
    61    24    59 1   
    62    24    60 1   
    63    24    61 1   
    64    25    62 1   
    65    25    63 1   
    66    25    64 1   
    67    27    65 1   
    68    28    66 1   
@<TRIPOS>SUBSTRUCTURE
     1 A1H         1 TEMP              0 ****  ****    0 ROOT
