@<TRIPOS>MOLECULE
A1H
   72    77     1     0     0
SMALL
No Charge or Current Charge


@<TRIPOS>ATOM
      1 C36         33.8570    -4.2470    -0.6150 ca         1 A1H      -0.113000
      2 C35         35.1620    -3.7370    -0.4950 ca         1 A1H      -0.089500
      3 C38         34.7650    -6.4260    -1.1960 ca         1 A1H      -0.113000
      4 C34         36.2920    -4.5630    -0.7140 cp         1 A1H      -0.042000
      5 C33         37.6830    -4.0270    -0.6060 cp         1 A1H      -0.022000
      6 C32         38.5810    -4.2030    -1.6870 ca         1 A1H      -0.100000
      7 C31         39.8960    -3.7100    -1.6290 ca         1 A1H      -0.084000
      8 C24         45.6330     4.2840    -5.6740 ca         1 A1H      -0.018400
      9 C25         46.4250     4.0260    -4.5470 ca         1 A1H      -0.020000
     10 C14         46.1840     4.7780    -3.3720 ca         1 A1H      -0.314500
     11 C15         45.1040     5.7000    -3.3240 ca         1 A1H      -0.013000
     12 C16         44.2530     5.8600    -4.4370 ca         1 A1H      -0.137000
     13 C11         45.0130     3.5820    -0.6520 c6         1 A1H       0.186300
     14 C4          40.3490    -3.0330    -0.4830 ca         1 A1H      -0.080300
     15 C5          41.7740    -2.5020    -0.4190 c3         1 A1H       0.209100
     16 C2          38.1560    -3.3480     0.5500 ca         1 A1H       0.128000
     17 Cl1         37.1470    -3.1290     1.9820 cl         1 A1H      -0.201000
     18 C3          39.4730    -2.8580     0.6040 ca         1 A1H      -0.104000
     19 N6          41.8550    -1.1720    -1.0490 n7         1 A1H      -0.851400
     20 C7          43.1610    -0.5500    -1.0200 cy         1 A1H       0.155500
     21 C8          43.7110    -0.0410     0.3590 cy         1 A1H      -0.101400
     22 C9          44.4120     1.1060    -0.4460 cy         1 A1H      -0.068000
     23 C10         44.4230     2.4840     0.2650 c6         1 A1H      -0.057900
     24 N12         46.3890     3.2390    -1.1060 n3         1 A1H      -0.697500
     25 S13         47.2020     4.5070    -1.9100 sy         1 A1H       1.144600
     26 C17         44.5690     5.1760    -5.6180 ca         1 A1H       0.056600
     27 N18         43.7540     4.9330    -6.7570 n          1 A1H      -0.291000
     28 C19         42.6620     5.8110    -7.2080 c3         1 A1H       0.101300
     29 C20         44.3110     3.9150    -7.5430 c          1 A1H       0.598000
     30 N21         45.4550     3.4990    -6.8480 n          1 A1H      -0.293000
     31 C22         46.4760     2.6010    -7.4170 c3         1 A1H       0.104300
     32 O23         43.9080     3.5060    -8.6230 o          1 A1H      -0.549000
     33 O26         47.1200     5.6740    -1.0230 o          1 A1H      -0.533500
     34 O27         48.5060     3.9680    -2.3130 o          1 A1H      -0.533500
     35 C28         46.4090     1.9360    -1.8260 c6         1 A1H       0.186300
     36 C29         45.8510     0.7850    -0.9520 c6         1 A1H      -0.057900
     37 C30         43.2720     0.9330    -1.5130 cy         1 A1H      -0.101400
     38 C37         33.6590    -5.5930    -0.9630 ca         1 A1H      -0.103000
     39 C39         36.0690    -5.9140    -1.0770 ca         1 A1H      -0.089500
     40 H1          33.0020    -3.5980    -0.4410 ha         1 A1H       0.113500
     41 H2          35.3010    -2.6890    -0.2390 ha         1 A1H       0.117000
     42 H3          34.6130    -7.4680    -1.4700 ha         1 A1H       0.113500
     43 H4          38.2470    -4.7180    -2.5850 ha         1 A1H       0.122000
     44 H5          40.5620    -3.8510    -2.4780 ha         1 A1H       0.129000
     45 H7          44.8880     6.2490    -2.4090 ha         1 A1H       0.138000
     46 H8          43.3700     6.4900    -4.3740 ha         1 A1H       0.129000
     47 H9          45.0130     4.5270    -0.0910 h1         1 A1H       0.054450
     48 H10         44.3450     3.7190    -1.5150 h1         1 A1H       0.054450
     49 H11         42.4460    -3.2090    -0.9260 h1         1 A1H       0.040200
     50 H12         42.0900    -2.4510     0.6330 h1         1 A1H       0.040200
     51 H13         39.8150    -2.3450     1.4990 ha         1 A1H       0.126000
     52 H14         41.1900    -0.5570    -0.5660 hn         1 A1H       0.414000
     53 H16         43.8730    -1.2080    -1.5350 h1         1 A1H       0.066700
     54 H17         42.9350     0.3010     1.0540 hc         1 A1H       0.054950
     55 H18         44.3730    -0.7310     0.8910 hc         1 A1H       0.054950
     56 H19         45.0200     2.4230     1.1850 hc         1 A1H       0.055200
     57 H20         43.4080     2.7700     0.5740 hc         1 A1H       0.055200
     58 H21         41.7050     5.4310    -6.8290 h1         1 A1H       0.055033
     59 H22         42.8210     6.8290    -6.8300 h1         1 A1H       0.055033
     60 H23         42.6280     5.8420    -8.3040 h1         1 A1H       0.055033
     61 H24         47.4740     2.9160    -7.0890 h1         1 A1H       0.054367
     62 H25         46.2920     1.5750    -7.0770 h1         1 A1H       0.054367
     63 H26         46.4380     2.6310    -8.5130 h1         1 A1H       0.054367
     64 H27         45.8180     1.9980    -2.7510 h1         1 A1H       0.054450
     65 H28         47.4350     1.6670    -2.1180 h1         1 A1H       0.054450
     66 H29         45.8790    -0.1500    -1.5260 hc         1 A1H       0.055200
     67 H30         46.5180     0.6350    -0.0930 hc         1 A1H       0.055200
     68 H31         43.5610     1.0640    -2.5610 hc         1 A1H       0.054950
     69 H32         42.3770     1.5370    -1.3240 hc         1 A1H       0.054950
     70 H33         32.6490    -5.9890    -1.0570 ha         1 A1H       0.113000
     71 H34         36.9170    -6.5700    -1.2580 ha         1 A1H       0.117000
     72 H6          47.1930     3.2550    -4.5790 ha         1 A1H       0.143000
@<TRIPOS>BOND
     1     1     2 ar  
     2     1    38 ar  
     3     1    40 1   
     4     2     4 ar  
     5     2    41 1   
     6     3    38 ar  
     7     3    39 ar  
     8     3    42 1   
     9     4     5 1   
    10     4    39 ar  
    11     5     6 ar  
    12     5    16 ar  
    13     6     7 ar  
    14     6    43 1   
    15     7    14 ar  
    16     7    44 1   
    17     8     9 ar  
    18     8    26 ar  
    19     8    30 1   
    20     9    10 ar  
    21     9    72 1   
    22    10    11 ar  
    23    10    25 1   
    24    11    12 ar  
    25    11    45 1   
    26    12    26 ar  
    27    12    46 1   
    28    13    23 1   
    29    13    24 1   
    30    13    47 1   
    31    13    48 1   
    32    14    15 1   
    33    14    18 ar  
    34    15    19 1   
    35    15    49 1   
    36    15    50 1   
    37    16    17 1   
    38    16    18 ar  
    39    18    51 1   
    40    19    20 1   
    41    19    52 1   
    42    20    21 1   
    43    20    37 1   
    44    20    53 1   
    45    21    22 1   
    46    21    54 1   
    47    21    55 1   
    48    22    23 1   
    49    22    36 1   
    50    22    37 1   
    51    23    56 1   
    52    23    57 1   
    53    24    25 1   
    54    24    35 1   
    55    25    33 2   
    56    25    34 2   
    57    26    27 1   
    58    27    28 1   
    59    27    29 1   
    60    28    58 1   
    61    28    59 1   
    62    28    60 1   
    63    29    30 1   
    64    29    32 2   
    65    30    31 1   
    66    31    61 1   
    67    31    62 1   
    68    31    63 1   
    69    35    36 1   
    70    35    64 1   
    71    35    65 1   
    72    36    66 1   
    73    36    67 1   
    74    37    68 1   
    75    37    69 1   
    76    38    70 1   
    77    39    71 1   
@<TRIPOS>SUBSTRUCTURE
     1 A1H         1 TEMP              0 ****  ****    0 ROOT
