@<TRIPOS>MOLECULE
A1H
   68    71     1     0     0
SMALL
No Charge or Current Charge


@<TRIPOS>ATOM
      1 O1          48.1810     3.5710    -1.6500 o          1 A1H      -0.535000
      2 S2          47.3890     3.2830    -2.8500 sy         1 A1H       1.166600
      3 C3          46.0110     4.4360    -2.9650 ca         1 A1H      -0.269500
      4 C4          45.7570     5.3700    -1.9310 ca         1 A1H      -0.030000
      5 C5          44.6520     6.2400    -2.0230 ca         1 A1H      -0.075000
      6 C6          43.8080     6.1700    -3.1410 ca         1 A1H       0.133400
      7 C7          44.0650     5.2560    -4.1420 ca         1 A1H      -0.219000
      8 S8          42.8820     5.3340    -5.4360 ss         1 A1H       0.044800
      9 C9          42.1290     6.6330    -4.4850 cc         1 A1H       0.400100
     10 N10         42.6930     6.9810    -3.3160 nd         1 A1H      -0.528100
     11 C11         45.1570     4.3760    -4.0850 ca         1 A1H       0.044000
     12 N12         46.6240     1.7740    -2.5940 n3         1 A1H      -0.765500
     13 C13         47.5970     0.6450    -2.3660 c3         1 A1H       0.155800
     14 C14         48.7340     0.4170    -3.4020 c          1 A1H       0.596100
     15 O15         48.2810    -0.2180    -4.5340 os         1 A1H      -0.435100
     16 C16         49.2260    -0.4780    -5.5880 c3         1 A1H       0.148900
     17 O17         49.9000     0.7490    -3.2210 o          1 A1H      -0.472000
     18 C18         45.5070     1.8120    -1.6130 c3         1 A1H       0.222800
     19 C19         44.6150     0.5460    -1.5980 c3         1 A1H      -0.083400
     20 C20         43.3320     0.6780    -0.7400 c3         1 A1H      -0.078400
     21 C21         42.2800     1.6720    -1.3030 c3         1 A1H      -0.119400
     22 C22         40.9840     1.7770    -0.4630 c3         1 A1H       0.163800
     23 N23         40.2710     0.4850    -0.3680 n7         1 A1H      -0.871400
     24 C24         39.6340    -0.0130    -1.6020 c3         1 A1H       0.209100
     25 C25         38.9410    -1.3410    -1.3370 ca         1 A1H      -0.081300
     26 C26         39.5630    -2.5530    -1.6870 ca         1 A1H      -0.111000
     27 C27         38.9190    -3.7770    -1.4380 ca         1 A1H      -0.097000
     28 C28         37.6370    -3.8240    -0.8380 cp         1 A1H      -0.025000
     29 C29         36.9870    -5.1480    -0.5970 cp         1 A1H      -0.041000
     30 C30         37.6820    -6.1740     0.0890 ca         1 A1H      -0.089500
     31 C31         37.0870    -7.4300     0.3080 ca         1 A1H      -0.113500
     32 C32         35.7890    -7.6840    -0.1630 ca         1 A1H      -0.103000
     33 C33         35.0870    -6.6840    -0.8560 ca         1 A1H      -0.113500
     34 C34         35.6830    -5.4300    -1.0740 ca         1 A1H      -0.089500
     35 C35         37.0240    -2.5920    -0.4770 ca         1 A1H       0.127000
     36 Cl36        35.4600    -2.5320     0.3390 cl         1 A1H      -0.201000
     37 C37         37.6730    -1.3700    -0.7280 ca         1 A1H      -0.085000
     38 O38         47.9880     3.2040    -4.1860 o          1 A1H      -0.535000
     39 H1          46.4040     5.4220    -1.0570 ha         1 A1H       0.148000
     40 H2          44.4520     6.9580    -1.2320 ha         1 A1H       0.140000
     41 H3          41.2380     7.1010    -4.8820 h5         1 A1H       0.063800
     42 H4          45.3300     3.6560    -4.8850 ha         1 A1H       0.150000
     43 H5          47.0640    -0.3120    -2.3320 h1         1 A1H       0.082700
     44 H6          48.0890     0.7640    -1.3920 h1         1 A1H       0.082700
     45 H7          48.7320    -0.9840    -6.4280 h1         1 A1H       0.050700
     46 H8          49.6610     0.4570    -5.9640 h1         1 A1H       0.050700
     47 H9          50.0400    -1.1240    -5.2340 h1         1 A1H       0.050700
     48 H10         45.8960     1.9840    -0.6000 h1         1 A1H       0.051700
     49 H11         44.8370     2.6470    -1.8380 h1         1 A1H       0.051700
     50 H12         45.1920    -0.2980    -1.2060 hc         1 A1H       0.051700
     51 H13         44.3350     0.2910    -2.6270 hc         1 A1H       0.051700
     52 H14         42.8790    -0.3180    -0.6650 hc         1 A1H       0.042200
     53 H15         43.6070     0.9740     0.2800 hc         1 A1H       0.042200
     54 H16         42.7170     2.6760    -1.3480 hc         1 A1H       0.044700
     55 H17         42.0340     1.4020    -2.3360 hc         1 A1H       0.044700
     56 H18         41.2550     2.1260     0.5430 h1         1 A1H       0.054700
     57 H19         40.3320     2.5440    -0.9030 h1         1 A1H       0.054700
     58 H20         40.9360    -0.2260    -0.0450 hn         1 A1H       0.416000
     59 H22         38.8940     0.7110    -1.9720 h1         1 A1H       0.038200
     60 H23         40.3780    -0.1550    -2.3980 h1         1 A1H       0.038200
     61 H24         40.5460    -2.5490    -2.1530 ha         1 A1H       0.114000
     62 H25         39.4130    -4.7030    -1.7220 ha         1 A1H       0.120000
     63 H26         38.6870    -5.9890     0.4600 ha         1 A1H       0.116500
     64 H27         37.6340    -8.2040     0.8420 ha         1 A1H       0.113500
     65 H28         35.3290    -8.6560     0.0050 ha         1 A1H       0.113000
     66 H29         34.0840    -6.8820    -1.2280 ha         1 A1H       0.113500
     67 H30         35.1340    -4.6700    -1.6250 ha         1 A1H       0.116500
     68 H31         37.1930    -0.4390    -0.4370 ha         1 A1H       0.146000
@<TRIPOS>BOND
     1     1     2 2   
     2     2     3 1   
     3     2    12 1   
     4     2    38 2   
     5     3     4 ar  
     6     3    11 ar  
     7     4     5 ar  
     8     4    39 1   
     9     5     6 ar  
    10     5    40 1   
    11     6     7 ar  
    12     6    10 1   
    13     7     8 1   
    14     7    11 ar  
    15     8     9 1   
    16     9    10 2   
    17     9    41 1   
    18    11    42 1   
    19    12    13 1   
    20    12    18 1   
    21    13    14 1   
    22    13    43 1   
    23    13    44 1   
    24    14    15 1   
    25    14    17 2   
    26    15    16 1   
    27    16    45 1   
    28    16    46 1   
    29    16    47 1   
    30    18    19 1   
    31    18    48 1   
    32    18    49 1   
    33    19    20 1   
    34    19    50 1   
    35    19    51 1   
    36    20    21 1   
    37    20    52 1   
    38    20    53 1   
    39    21    22 1   
    40    21    54 1   
    41    21    55 1   
    42    22    23 1   
    43    22    56 1   
    44    22    57 1   
    45    23    24 1   
    46    23    58 1   
    47    24    25 1   
    48    24    59 1   
    49    24    60 1   
    50    25    26 ar  
    51    25    37 ar  
    52    26    27 ar  
    53    26    61 1   
    54    27    28 ar  
    55    27    62 1   
    56    28    29 1   
    57    28    35 ar  
    58    29    30 ar  
    59    29    34 ar  
    60    30    31 ar  
    61    30    63 1   
    62    31    32 ar  
    63    31    64 1   
    64    32    33 ar  
    65    32    65 1   
    66    33    34 ar  
    67    33    66 1   
    68    34    67 1   
    69    35    36 1   
    70    35    37 ar  
    71    37    68 1   
@<TRIPOS>SUBSTRUCTURE
     1 A1H         1 TEMP              0 ****  ****    0 ROOT
