@<TRIPOS>MOLECULE
A1H
   76    79     1     0     0
SMALL
abcg2


@<TRIPOS>ATOM
      1 C4          -6.2470   -17.3190   -19.8830 ca         1 A1H      -0.009300
      2 C14        -10.3170   -14.9970   -18.6590 cc         1 A1H      -0.258300
      3 C5          -6.0110   -17.2410   -21.3790 c3         1 A1H      -0.086400
      4 C6          -6.7090   -15.9960   -21.9270 c          1 A1H       0.622100
      5 C11         -8.7330   -14.8830   -22.6600 c6         1 A1H       0.044700
      6 C7          -8.9000   -17.2150   -21.9500 c6         1 A1H       0.099000
      7 C8          -9.7200   -17.5760   -23.1780 c6         1 A1H      -0.094400
      8 C9         -10.5270   -16.3760   -23.6550 c6         1 A1H      -0.076400
      9 C10         -9.6100   -15.1800   -23.8730 c6         1 A1H      -0.072400
     10 C12         -9.5110   -14.2620   -21.5010 c          1 A1H       0.580100
     11 C13         -9.4380   -13.9090   -19.1550 c3         1 A1H       0.252900
     12 N1          -8.0310   -16.0780   -22.2180 n          1 A1H      -0.396800
     13 N2         -10.9670   -17.0030   -17.8660 nd         1 A1H      -0.533800
     14 C3          -6.7560   -18.4870   -19.3300 ca         1 A1H      -0.220500
     15 N3         -12.0300   -16.2410   -18.1130 na         1 A1H       0.129800
     16 C1          -7.8420   -20.7700   -18.1180 c3         1 A1H       0.144900
     17 C2          -6.8950   -18.6070   -17.9480 ca         1 A1H       0.155100
     18 O2          -6.0870   -14.9530   -22.0750 o          1 A1H      -0.605100
     19 O3         -10.6050   -13.7700   -21.5940 o          1 A1H      -0.492000
     20 O4          -8.8020   -14.2980   -20.3850 os         1 A1H      -0.433100
     21 C15         -9.9240   -16.2640   -18.1930 cc         1 A1H       0.258900
     22 C16        -13.3560   -16.7380   -17.8380 c3         1 A1H       0.072900
     23 C17        -11.6930   -15.0330   -18.5940 cd         1 A1H      -0.133000
     24 C18         -4.5150   -17.2540   -21.7420 c6         1 A1H      -0.045700
     25 C19         -3.7840   -18.4010   -21.0420 c6         1 A1H      -0.073900
     26 C20         -2.3090   -18.4510   -21.4290 c6         1 A1H      -0.072900
     27 C21         -2.1290   -18.5660   -22.9380 c6         1 A1H      -0.076400
     28 C22         -2.8560   -17.4330   -23.6510 c6         1 A1H      -0.072900
     29 C23         -4.3290   -17.3830   -23.2580 c6         1 A1H      -0.073900
     30 C24         -5.8970   -16.2520   -19.0610 ca         1 A1H      -0.220500
     31 C25         -6.0330   -16.3660   -17.6800 ca         1 A1H       0.155100
     32 O5          -5.7190   -15.3960   -16.8040 os         1 A1H      -0.322100
     33 C26         -5.2830   -14.1490   -17.3040 c3         1 A1H       0.144900
     34 C27         -6.5160   -17.5520   -17.1150 ca         1 A1H       0.023100
     35 O6          -6.6040   -17.6800   -15.7640 os         1 A1H      -0.328100
     36 C28         -7.8380   -17.2460   -15.2110 c3         1 A1H       0.144900
     37 H5          -6.4350   -18.1400   -21.8320 hc         1 A1H       0.062700
     38 H14         -7.9820   -14.1430   -22.9460 h1         1 A1H       0.108700
     39 H7          -8.3200   -18.0700   -21.6240 h1         1 A1H       0.053200
     40 H6          -9.5720   -16.9720   -21.1160 h1         1 A1H       0.053200
     41 H8          -9.0500   -17.9220   -23.9710 hc         1 A1H       0.047700
     42 H9         -10.3780   -18.4100   -22.9280 hc         1 A1H       0.047700
     43 H10        -11.0540   -16.6130   -24.5810 hc         1 A1H       0.050200
     44 H11        -11.2930   -16.1360   -22.9120 hc         1 A1H       0.050200
     45 H12         -8.9410   -15.3850   -24.7130 hc         1 A1H       0.059200
     46 H13        -10.1780   -14.2890   -24.1400 hc         1 A1H       0.059200
     47 H15         -8.6090   -13.7280   -18.4720 h1         1 A1H       0.065200
     48 H16         -9.9850   -12.9730   -19.2780 h1         1 A1H       0.065200
     49 H4          -7.0190   -19.3060   -19.9850 ha         1 A1H       0.129000
     50 H3          -8.2180   -21.5210   -17.4270 h1         1 A1H       0.042367
     51 H1          -8.6550   -20.4640   -18.7810 h1         1 A1H       0.042367
     52 H2          -7.0450   -21.2150   -18.7190 h1         1 A1H       0.042367
     53 H17         -8.9210   -16.6540   -18.0970 h4         1 A1H       0.047100
     54 H20        -13.5250   -17.6720   -18.3710 h1         1 A1H       0.056367
     55 H18        -13.4880   -16.9080   -16.7710 h1         1 A1H       0.056367
     56 H19        -14.0840   -16.0050   -18.1720 h1         1 A1H       0.056367
     57 H21        -12.4350   -14.2940   -18.8520 h4         1 A1H       0.161000
     58 H22         -4.0600   -16.3130   -21.4140 hc         1 A1H       0.072700
     59 H24         -3.8740   -18.3080   -19.9580 hc         1 A1H       0.041200
     60 H23         -4.2610   -19.3510   -21.3130 hc         1 A1H       0.041200
     61 H25         -1.8110   -17.5420   -21.0750 hc         1 A1H       0.040200
     62 H26         -1.8220   -19.2880   -20.9220 hc         1 A1H       0.040200
     63 H27         -1.0680   -18.5630   -23.1980 hc         1 A1H       0.037200
     64 H28         -2.5320   -19.5260   -23.2780 hc         1 A1H       0.037200
     65 H29         -2.3830   -16.4800   -23.3920 hc         1 A1H       0.040200
     66 H30         -2.7640   -17.5410   -24.7350 hc         1 A1H       0.040200
     67 H32         -4.8170   -16.5570   -23.7790 hc         1 A1H       0.041200
     68 H31         -4.8250   -18.3010   -23.5940 hc         1 A1H       0.041200
     69 H33         -5.5050   -15.3460   -19.5040 ha         1 A1H       0.129000
     70 H36         -5.1210   -13.5100   -16.4400 h1         1 A1H       0.042367
     71 H34         -4.3440   -14.2340   -17.8580 h1         1 A1H       0.042367
     72 H35         -6.0330   -13.6840   -17.9500 h1         1 A1H       0.042367
     73 H39         -7.7740   -17.3860   -14.1330 h1         1 A1H       0.035033
     74 H37         -8.0260   -16.1890   -15.4150 h1         1 A1H       0.035033
     75 H38         -8.6810   -17.8290   -15.5890 h1         1 A1H       0.035033
     76 O1          -7.3750   -19.6970   -17.3260 os         1 A1H      -0.322100
@<TRIPOS>BOND
     1     1     3 1   
     2     1    14 ar  
     3     1    30 ar  
     4     2    11 1   
     5     2    21 1   
     6     2    23 2   
     7     3     4 1   
     8     3    24 1   
     9     3    37 1   
    10     4    12 1   
    11     4    18 2   
    12     5     9 1   
    13     5    10 1   
    14     5    12 1   
    15     5    38 1   
    16     6     7 1   
    17     6    12 1   
    18     6    39 1   
    19     6    40 1   
    20     7     8 1   
    21     7    41 1   
    22     7    42 1   
    23     8     9 1   
    24     8    43 1   
    25     8    44 1   
    26     9    45 1   
    27     9    46 1   
    28    10    19 2   
    29    10    20 1   
    30    11    20 1   
    31    11    47 1   
    32    11    48 1   
    33    13    15 1   
    34    13    21 2   
    35    14    17 ar  
    36    14    49 1   
    37    15    22 1   
    38    15    23 1   
    39    16    50 1   
    40    16    51 1   
    41    16    52 1   
    42    16    76 1   
    43    17    34 ar  
    44    17    76 1   
    45    21    53 1   
    46    22    54 1   
    47    22    55 1   
    48    22    56 1   
    49    23    57 1   
    50    24    25 1   
    51    24    29 1   
    52    24    58 1   
    53    25    26 1   
    54    25    59 1   
    55    25    60 1   
    56    26    27 1   
    57    26    61 1   
    58    26    62 1   
    59    27    28 1   
    60    27    63 1   
    61    27    64 1   
    62    28    29 1   
    63    28    65 1   
    64    28    66 1   
    65    29    67 1   
    66    29    68 1   
    67    30    31 ar  
    68    30    69 1   
    69    31    32 1   
    70    31    34 ar  
    71    32    33 1   
    72    33    70 1   
    73    33    71 1   
    74    33    72 1   
    75    34    35 1   
    76    35    36 1   
    77    36    73 1   
    78    36    74 1   
    79    36    75 1   
@<TRIPOS>SUBSTRUCTURE
     1 A1H         1 TEMP              0 ****  ****    0 ROOT
