@<TRIPOS>MOLECULE
A1H
   69    73     1     0     0
SMALL
No Charge or Current Charge


@<TRIPOS>ATOM
      1 C4         -10.2770     3.0740    18.9560 ca         1 A1H      -0.079300
      2 C9         -16.1140     0.6220    18.4970 c6         1 A1H      -0.057700
      3 N12        -18.3160    -1.1800    17.6250 n3         1 A1H      -0.760500
      4 C17        -18.4800    -6.1100    17.6160 ca         1 A1H      -0.139000
      5 C19        -18.0770    -5.2540    15.3800 ca         1 A1H      -0.100000
      6 C20        -18.5820    -3.9740    15.7490 ca         1 A1H       0.345000
      7 C22        -18.1610    -3.1820    13.5870 ca         1 A1H       0.378900
      8 C25        -17.6120    -5.4760    14.0710 ca         1 A1H      -0.057000
      9 C28        -15.8610    -0.8340    18.0220 c6         1 A1H      -0.075900
     10 C29         -9.2610     2.8290    18.0150 ca         1 A1H      -0.109000
     11 C30         -8.3490     3.8430    17.6780 ca         1 A1H      -0.097000
     12 C33         -6.6590     6.8560    18.8620 ca         1 A1H      -0.089500
     13 C35         -5.5160     8.1290    17.1300 ca         1 A1H      -0.104000
     14 C2          -9.4630     5.3650    19.2150 ca         1 A1H       0.127000
     15 C3         -10.3730     4.3470    19.5480 ca         1 A1H      -0.082000
     16 C5         -11.2690     1.9810    19.3280 c3         1 A1H       0.204100
     17 N6         -12.5670     2.2200    18.6720 n7         1 A1H      -0.860400
     18 C7         -13.6000     1.2050    18.9400 c3         1 A1H       0.157800
     19 C8         -14.9110     1.5730    18.2120 c3         1 A1H      -0.075400
     20 C10        -17.4130     1.1480    17.8330 c6         1 A1H      -0.075900
     21 C11        -18.6060     0.1970    18.0920 c6         1 A1H       0.220300
     22 S13        -19.6770    -2.2070    17.6560 sy         1 A1H       1.183600
     23 O14        -20.6070    -1.6810    16.6480 o          1 A1H      -0.545500
     24 C15        -19.0350    -3.7920    17.0770 ca         1 A1H      -0.244500
     25 C16        -18.9790    -4.8590    18.0020 ca         1 A1H       0.010000
     26 C18        -18.0310    -6.3100    16.3070 ca         1 A1H      -0.037000
     27 N21        -18.6100    -2.9670    14.8430 nb         1 A1H      -0.665000
     28 C23        -17.6550    -4.4190    13.1510 ca         1 A1H      -0.134300
     29 C24        -17.1590    -4.6080    11.7250 c3         1 A1H      -0.043800
     30 O26        -20.0720    -2.3240    19.0650 o          1 A1H      -0.545500
     31 C27        -17.0970    -1.7350    18.2670 c6         1 A1H       0.220300
     32 C31         -8.4230     5.1260    18.2730 cp         1 A1H      -0.025000
     33 C32         -7.4290     6.1730    17.8880 cp         1 A1H      -0.040000
     34 C34         -5.7140     7.8270    18.4870 ca         1 A1H      -0.113500
     35 C36         -6.2610     7.4550    16.1480 ca         1 A1H      -0.113500
     36 C37         -7.2050     6.4840    16.5240 ca         1 A1H      -0.089500
     37 H1         -16.2600     0.6170    19.5870 hc         1 A1H       0.046700
     38 H3         -18.2100    -2.3310    12.9080 h4         1 A1H       0.022100
     39 H4         -17.2230    -6.4480    13.7740 ha         1 A1H       0.119000
     40 H5         -15.6150    -0.8420    16.9510 hc         1 A1H       0.048950
     41 H6         -14.9990    -1.2670    18.5460 hc         1 A1H       0.048950
     42 H7          -9.1760     1.8520    17.5440 ha         1 A1H       0.114000
     43 H8          -7.5670     3.6330    16.9530 ha         1 A1H       0.121000
     44 H9          -6.7910     6.6220    19.9160 ha         1 A1H       0.116500
     45 H10         -4.7850     8.8800    16.8400 ha         1 A1H       0.112000
     46 H11        -11.1650     4.5510    20.2640 ha         1 A1H       0.144000
     47 H12        -11.3890     1.9630    20.4200 h1         1 A1H       0.038200
     48 H13        -10.8620     1.0050    19.0290 h1         1 A1H       0.038200
     49 H14        -12.4020     2.2510    17.6600 hn         1 A1H       0.411000
     50 H16        -13.7960     1.1380    20.0190 h1         1 A1H       0.029200
     51 H17        -13.2560     0.2190    18.5990 h1         1 A1H       0.029200
     52 H18        -14.7170     1.6080    17.1330 hc         1 A1H       0.049200
     53 H19        -15.1860     2.5930    18.5070 hc         1 A1H       0.049200
     54 H20        -17.2650     1.2540    16.7500 hc         1 A1H       0.048950
     55 H21        -17.6560     2.1480    18.2160 hc         1 A1H       0.048950
     56 H22        -18.8380     0.1970    19.1680 h1         1 A1H       0.052200
     57 H23        -19.4860     0.6040    17.5730 h1         1 A1H       0.052200
     58 H24        -19.3200    -4.7290    19.0270 ha         1 A1H       0.146000
     59 H25        -17.6430    -7.2840    16.0150 ha         1 A1H       0.118000
     60 H26        -17.5400    -3.8250    11.0580 hc         1 A1H       0.047367
     61 H27        -16.0630    -4.5770    11.6850 hc         1 A1H       0.047367
     62 H28        -17.4820    -5.5730    11.3180 hc         1 A1H       0.047367
     63 H29        -17.2510    -1.8470    19.3510 h1         1 A1H       0.052200
     64 H30        -16.8580    -2.7330    17.8730 h1         1 A1H       0.052200
     65 H31         -5.1330     8.3420    19.2490 ha         1 A1H       0.113500
     66 H32         -6.1060     7.6840    15.0960 ha         1 A1H       0.113500
     67 H33         -7.7760     5.9700    15.7540 ha         1 A1H       0.116500
     68 Cl1         -9.6940     6.9450    19.9680 cl         1 A1H      -0.201000
     69 H2         -18.4420    -6.9260    18.3350 ha         1 A1H       0.123000
@<TRIPOS>BOND
     1     1    10 ar  
     2     1    15 ar  
     3     1    16 1   
     4     2     9 1   
     5     2    19 1   
     6     2    20 1   
     7     2    37 1   
     8     3    21 1   
     9     3    22 1   
    10     3    31 1   
    11     4    25 ar  
    12     4    26 ar  
    13     4    69 1   
    14     5     6 ar  
    15     5     8 ar  
    16     5    26 ar  
    17     6    24 ar  
    18     6    27 ar  
    19     7    27 ar  
    20     7    28 ar  
    21     7    38 1   
    22     8    28 ar  
    23     8    39 1   
    24     9    31 1   
    25     9    40 1   
    26     9    41 1   
    27    10    11 ar  
    28    10    42 1   
    29    11    32 ar  
    30    11    43 1   
    31    12    33 ar  
    32    12    34 ar  
    33    12    44 1   
    34    13    34 ar  
    35    13    35 ar  
    36    13    45 1   
    37    14    15 ar  
    38    14    32 ar  
    39    14    68 1   
    40    15    46 1   
    41    16    17 1   
    42    16    47 1   
    43    16    48 1   
    44    17    18 1   
    45    17    49 1   
    46    18    19 1   
    47    18    50 1   
    48    18    51 1   
    49    19    52 1   
    50    19    53 1   
    51    20    21 1   
    52    20    54 1   
    53    20    55 1   
    54    21    56 1   
    55    21    57 1   
    56    22    23 2   
    57    22    24 1   
    58    22    30 2   
    59    24    25 ar  
    60    25    58 1   
    61    26    59 1   
    62    28    29 1   
    63    29    60 1   
    64    29    61 1   
    65    29    62 1   
    66    31    63 1   
    67    31    64 1   
    68    32    33 1   
    69    33    36 ar  
    70    34    65 1   
    71    35    36 ar  
    72    35    66 1   
    73    36    67 1   
@<TRIPOS>SUBSTRUCTURE
     1 A1H         1 TEMP              0 ****  ****    0 ROOT
