@<TRIPOS>MOLECULE
A1H
   59    62     1     0     0
SMALL
No Charge or Current Charge


@<TRIPOS>ATOM
      1 C1           2.2140    37.7840    33.1060 ca         1 A1H      -0.083000
      2 O1          -3.1980    46.4700    29.9300 o          1 A1H      -0.531000
      3 C7          -1.2340    44.0440    31.7410 c3         1 A1H       0.202800
      4 C8          -4.0770    44.3470    31.3270 ca         1 A1H      -0.303500
      5 C9          -4.7790    44.0620    32.5220 ca         1 A1H       0.026000
      6 C10         -5.5430    42.8920    32.6480 ca         1 A1H      -0.143000
      7 C11         -5.6230    41.9850    31.5860 ca         1 A1H      -0.023000
      8 C12         -4.9260    42.2430    30.3930 ca         1 A1H      -0.125000
      9 C13         -4.1450    43.4150    30.2480 ca         1 A1H       0.068000
     10 C19          3.9460    36.0440    33.1940 cp         1 A1H      -0.023000
     11 C20          4.4720    34.7260    33.6630 cp         1 A1H      -0.041000
     12 C21          4.5360    34.4030    35.0410 ca         1 A1H      -0.089500
     13 C23          5.5150    32.2340    34.5330 ca         1 A1H      -0.103000
     14 C24          5.4720    32.5390    33.1630 ca         1 A1H      -0.113500
     15 C2           3.0170    38.5690    32.2570 ca         1 A1H      -0.080300
     16 C3           2.5140    39.9170    31.7600 c3         1 A1H       0.202100
     17 C4           2.2410    42.3080    32.4630 c3         1 A1H       0.164800
     18 C5           0.7180    42.4470    32.2380 c3         1 A1H      -0.080400
     19 C6           0.2830    43.9050    31.9640 c3         1 A1H      -0.080400
     20 S           -3.1640    45.9180    31.2840 sy         1 A1H       1.151600
     21 O           -3.4960    46.7350    32.4530 o          1 A1H      -0.531000
     22 C14         -3.4590    43.5620    29.0200 ca         1 A1H      -0.178000
     23 C15         -3.5930    42.5880    28.0200 ca         1 A1H       0.350900
     24 N2          -4.3520    41.4810    28.1600 nb         1 A1H      -0.664000
     25 C16         -5.0020    41.3200    29.3320 ca         1 A1H       0.374900
     26 N1          -1.5710    45.4560    31.4990 n7         1 A1H      -0.870300
     27 N            2.6180    40.9280    32.8300 n7         1 A1H      -0.864400
     28 C17          4.2810    38.0890    31.8710 ca         1 A1H      -0.108000
     29 C18          4.7360    36.8420    32.3310 ca         1 A1H      -0.097000
     30 C            2.6650    36.5370    33.5710 ca         1 A1H       0.127000
     31 Cl           1.5680    35.6000    34.5880 cl         1 A1H      -0.201000
     32 C25          4.9600    33.7750    32.7330 ca         1 A1H      -0.089500
     33 C22          5.0480    33.1670    35.4730 ca         1 A1H      -0.113500
     34 H1           1.2330    38.1440    33.4040 ha         1 A1H       0.142000
     35 H2          -1.7560    43.6700    32.6330 h1         1 A1H       0.050700
     36 H3          -1.5200    43.4120    30.8900 h1         1 A1H       0.050700
     37 H4          -4.7440    44.7470    33.3670 ha         1 A1H       0.146000
     38 H5          -6.0780    42.6920    33.5730 ha         1 A1H       0.127000
     39 H6          -6.2200    41.0820    31.6920 ha         1 A1H       0.122000
     40 H7           4.1920    35.1230    35.7810 ha         1 A1H       0.116500
     41 H8           5.9120    31.2770    34.8660 ha         1 A1H       0.113000
     42 H9           5.8370    31.8180    32.4330 ha         1 A1H       0.113500
     43 H10          1.4730    39.8010    31.4290 h1         1 A1H       0.037700
     44 H11          3.1040    40.2220    30.8850 h1         1 A1H       0.037700
     45 H12          2.7780    42.6300    31.5590 h1         1 A1H       0.031700
     46 H13          2.5300    42.9910    33.2740 h1         1 A1H       0.031700
     47 H14          0.1890    42.0740    33.1230 hc         1 A1H       0.048700
     48 H15          0.4110    41.8230    31.3900 hc         1 A1H       0.048700
     49 H16          0.8150    44.2790    31.0810 hc         1 A1H       0.051200
     50 H17          0.5800    44.5350    32.8120 hc         1 A1H       0.051200
     51 H18         -2.8050    44.3970    28.8100 ha         1 A1H       0.136000
     52 H19         -3.0660    42.6950    27.0720 h4         1 A1H       0.024100
     53 H20         -5.6010    40.4150    29.4250 h4         1 A1H       0.021100
     54 H21         -1.1620    45.7680    30.6200 hn         1 A1H       0.482000
     55 H22          3.6000    40.9420    33.1310 hn         1 A1H       0.418000
     56 H24          4.9140    38.6820    31.2140 ha         1 A1H       0.115000
     57 H25          5.7190    36.4900    32.0260 ha         1 A1H       0.121000
     58 H26          4.9310    33.9990    31.6690 ha         1 A1H       0.116500
     59 H27          5.0870    32.9360    36.5350 ha         1 A1H       0.113500
@<TRIPOS>BOND
     1     1    15 ar  
     2     1    30 ar  
     3     1    34 1   
     4     2    20 2   
     5     3    19 1   
     6     3    26 1   
     7     3    35 1   
     8     3    36 1   
     9     4     5 ar  
    10     4     9 ar  
    11     4    20 1   
    12     5     6 ar  
    13     5    37 1   
    14     6     7 ar  
    15     6    38 1   
    16     7     8 ar  
    17     7    39 1   
    18     8     9 ar  
    19     8    25 ar  
    20     9    22 ar  
    21    10    11 1   
    22    10    29 ar  
    23    10    30 ar  
    24    11    12 ar  
    25    11    32 ar  
    26    12    33 ar  
    27    12    40 1   
    28    13    14 ar  
    29    13    33 ar  
    30    13    41 1   
    31    14    32 ar  
    32    14    42 1   
    33    15    16 1   
    34    15    28 ar  
    35    16    27 1   
    36    16    43 1   
    37    16    44 1   
    38    17    18 1   
    39    17    27 1   
    40    17    45 1   
    41    17    46 1   
    42    18    19 1   
    43    18    47 1   
    44    18    48 1   
    45    19    49 1   
    46    19    50 1   
    47    20    21 2   
    48    20    26 1   
    49    22    23 ar  
    50    22    51 1   
    51    23    24 ar  
    52    23    52 1   
    53    24    25 ar  
    54    25    53 1   
    55    26    54 1   
    56    27    55 1   
    57    28    29 ar  
    58    28    56 1   
    59    29    57 1   
    60    30    31 1   
    61    32    58 1   
    62    33    59 1   
@<TRIPOS>SUBSTRUCTURE
     1 A1H         1 TEMP              0 ****  ****    0 ROOT
