@<TRIPOS>MOLECULE
A1H
   76    79     1     0     0
SMALL
No Charge or Current Charge


@<TRIPOS>ATOM
      1 C4          -6.1320   -17.0830   -20.1020 ca         1 A1H      -0.009300
      2 C14        -10.7040   -15.7810   -18.5600 cc         1 A1H      -0.258300
      3 C5          -5.7220   -17.2100   -21.5750 c3         1 A1H      -0.086400
      4 C6          -6.4130   -16.0440   -22.3430 c          1 A1H       0.622100
      5 C11         -8.6220   -14.9130   -22.7620 c6         1 A1H       0.044700
      6 C7          -8.4990   -17.4730   -22.6860 c6         1 A1H       0.099000
      7 C8          -9.7980   -17.5520   -23.5140 c6         1 A1H      -0.094400
      8 C9         -10.7290   -16.3720   -23.2200 c6         1 A1H      -0.076400
      9 C10         -9.9770   -15.0630   -23.5210 c6         1 A1H      -0.072400
     10 C12         -8.8050   -14.3360   -21.3250 c          1 A1H       0.580100
     11 C13         -9.7770   -14.7670   -19.1670 c3         1 A1H       0.252900
     12 N1          -7.7700   -16.1650   -22.7510 n          1 A1H      -0.396800
     13 N2         -11.5490   -17.8700   -18.1800 nd         1 A1H      -0.533800
     14 C3          -6.8730   -18.1060   -19.4820 ca         1 A1H      -0.220500
     15 N3         -12.2190   -16.9030   -17.4460 na         1 A1H       0.129800
     16 C1          -8.3900   -20.2060   -18.1790 c3         1 A1H       0.144900
     17 C2          -7.2750   -17.9940   -18.1330 ca         1 A1H       0.155100
     18 O2          -5.8410   -14.9670   -22.4780 o          1 A1H      -0.605100
     19 O3          -7.9960   -13.5630   -20.8270 o          1 A1H      -0.492000
     20 O4          -9.6920   -15.0540   -20.5680 os         1 A1H      -0.433100
     21 C15        -10.6520   -17.1580   -18.8300 cc         1 A1H       0.258900
     22 C16        -13.3250   -17.2690   -16.5510 c3         1 A1H       0.072900
     23 C17        -11.7180   -15.6150   -17.6640 cd         1 A1H      -0.133000
     24 C18         -4.1680   -17.2830   -21.7780 c6         1 A1H      -0.045700
     25 C19         -3.5190   -18.3990   -20.9030 c6         1 A1H      -0.073900
     26 C20         -1.9870   -18.4750   -21.1130 c6         1 A1H      -0.072900
     27 C21         -1.6340   -18.6840   -22.6050 c6         1 A1H      -0.076400
     28 C22         -2.2650   -17.5780   -23.4830 c6         1 A1H      -0.072900
     29 C23         -3.7980   -17.5040   -23.2760 c6         1 A1H      -0.073900
     30 C24         -5.7850   -15.9410   -19.3580 ca         1 A1H      -0.220500
     31 C25         -6.1820   -15.8070   -18.0110 ca         1 A1H       0.155100
     32 O5          -5.8710   -14.6810   -17.2680 os         1 A1H      -0.322100
     33 C26         -5.1720   -13.5560   -17.8280 c3         1 A1H       0.144900
     34 C27         -6.9380   -16.8310   -17.3990 ca         1 A1H       0.023100
     35 O6          -7.3110   -16.6840   -16.0730 os         1 A1H      -0.328100
     36 C28         -8.7020   -16.6050   -15.7150 c3         1 A1H       0.144900
     37 H5          -6.1370   -18.1570   -21.9230 hc         1 A1H       0.062700
     38 H14         -8.0640   -14.1250   -23.2860 h1         1 A1H       0.108700
     39 H7          -7.8500   -18.2780   -23.0560 h1         1 A1H       0.053200
     40 H6          -8.7330   -17.6890   -21.6350 h1         1 A1H       0.053200
     41 H8          -9.5470   -17.5660   -24.5840 hc         1 A1H       0.047700
     42 H9         -10.3140   -18.4990   -23.3040 hc         1 A1H       0.047700
     43 H10        -11.6280   -16.4390   -23.8480 hc         1 A1H       0.050200
     44 H11        -11.0740   -16.4070   -22.1790 hc         1 A1H       0.050200
     45 H12         -9.7750   -15.0190   -24.6010 hc         1 A1H       0.059200
     46 H13        -10.6250   -14.2010   -23.3070 hc         1 A1H       0.059200
     47 H15         -8.7930   -14.8490   -18.6860 h1         1 A1H       0.065200
     48 H16        -10.1640   -13.7530   -18.9950 h1         1 A1H       0.065200
     49 H4          -7.1230   -18.9900   -20.0600 ha         1 A1H       0.129000
     50 H3          -8.9390   -20.8600   -17.4900 h1         1 A1H       0.042367
     51 H1          -9.0530   -19.9660   -19.0200 h1         1 A1H       0.042367
     52 H2          -7.5240   -20.7630   -18.5580 h1         1 A1H       0.042367
     53 H17         -9.9680   -17.6660   -19.4970 h4         1 A1H       0.047100
     54 H20        -14.1100   -17.7730   -17.1260 h1         1 A1H       0.056367
     55 H18        -12.9550   -17.9430   -15.7690 h1         1 A1H       0.056367
     56 H19        -13.7390   -16.3660   -16.0850 h1         1 A1H       0.056367
     57 H21        -12.1120   -14.7290   -17.1770 h4         1 A1H       0.161000
     58 H22         -3.7540   -16.3160   -21.4570 hc         1 A1H       0.072700
     59 H24         -3.7210   -18.2170   -19.8390 hc         1 A1H       0.041200
     60 H23         -3.9720   -19.3710   -21.1430 hc         1 A1H       0.041200
     61 H25         -1.5170   -17.5510   -20.7480 hc         1 A1H       0.040200
     62 H26         -1.5690   -19.2950   -20.5140 hc         1 A1H       0.040200
     63 H27         -0.5430   -18.6860   -22.7340 hc         1 A1H       0.037200
     64 H28         -1.9910   -19.6690   -22.9360 hc         1 A1H       0.037200
     65 H29         -1.8110   -16.6070   -23.2400 hc         1 A1H       0.040200
     66 H30         -2.0410   -17.7710   -24.5410 hc         1 A1H       0.040200
     67 H32         -4.2020   -16.6930   -23.8960 hc         1 A1H       0.041200
     68 H31         -4.2610   -18.4310   -23.6410 hc         1 A1H       0.041200
     69 H33         -5.2110   -15.1580   -19.8450 ha         1 A1H       0.129000
     70 H36         -5.0460   -12.7720   -17.0710 h1         1 A1H       0.042367
     71 H34         -4.1750   -13.8510   -18.1800 h1         1 A1H       0.042367
     72 H35         -5.7320   -13.1290   -18.6700 h1         1 A1H       0.042367
     73 H39         -8.8070   -16.4910   -14.6290 h1         1 A1H       0.035033
     74 H37         -9.1710   -15.7360   -16.1930 h1         1 A1H       0.035033
     75 H38         -9.2510   -17.5040   -16.0140 h1         1 A1H       0.035033
     76 O1          -7.9720   -19.0100   -17.5000 os         1 A1H      -0.322100
@<TRIPOS>BOND
     1     1     3 1   
     2     1    14 ar  
     3     1    30 ar  
     4     2    11 1   
     5     2    21 1   
     6     2    23 2   
     7     3     4 1   
     8     3    24 1   
     9     3    37 1   
    10     4    12 1   
    11     4    18 2   
    12     5     9 1   
    13     5    10 1   
    14     5    12 1   
    15     5    38 1   
    16     6     7 1   
    17     6    12 1   
    18     6    39 1   
    19     6    40 1   
    20     7     8 1   
    21     7    41 1   
    22     7    42 1   
    23     8     9 1   
    24     8    43 1   
    25     8    44 1   
    26     9    45 1   
    27     9    46 1   
    28    10    19 2   
    29    10    20 1   
    30    11    20 1   
    31    11    47 1   
    32    11    48 1   
    33    13    15 1   
    34    13    21 2   
    35    14    17 ar  
    36    14    49 1   
    37    15    22 1   
    38    15    23 1   
    39    16    50 1   
    40    16    51 1   
    41    16    52 1   
    42    16    76 1   
    43    17    34 ar  
    44    17    76 1   
    45    21    53 1   
    46    22    54 1   
    47    22    55 1   
    48    22    56 1   
    49    23    57 1   
    50    24    25 1   
    51    24    29 1   
    52    24    58 1   
    53    25    26 1   
    54    25    59 1   
    55    25    60 1   
    56    26    27 1   
    57    26    61 1   
    58    26    62 1   
    59    27    28 1   
    60    27    63 1   
    61    27    64 1   
    62    28    29 1   
    63    28    65 1   
    64    28    66 1   
    65    29    67 1   
    66    29    68 1   
    67    30    31 ar  
    68    30    69 1   
    69    31    32 1   
    70    31    34 ar  
    71    32    33 1   
    72    33    70 1   
    73    33    71 1   
    74    33    72 1   
    75    34    35 1   
    76    35    36 1   
    77    36    73 1   
    78    36    74 1   
    79    36    75 1   
@<TRIPOS>SUBSTRUCTURE
     1 A1H         1 TEMP              0 ****  ****    0 ROOT
