@<TRIPOS>MOLECULE
A1H
   62    65     1     0     0
SMALL
No Charge or Current Charge


@<TRIPOS>ATOM
      1 CAT          0.7870    10.0990    15.0820 c3         1 A1H      -0.202100
      2 CAR         -0.4220    10.4120    14.2010 c          1 A1H       0.582100
      3 OAS         -0.3110    11.2220    13.2880 o          1 A1H      -0.522100
      4 CAQ         -1.7180     9.6100    14.5240 c5         1 A1H      -0.166700
      5 CAP         -3.0110    10.5040    14.4560 c5         1 A1H      -0.068400
      6 CAO         -4.1390     9.5390    13.9510 c5         1 A1H      -0.070400
      7 CAK         -3.4520     8.1450    13.9820 c5         1 A1H      -0.062700
      8 CAL         -2.0130     8.4740    13.4810 c5         1 A1H      -0.033000
      9 CAV         -1.9210     8.9470    11.9860 c3         1 A1H      -0.084100
     10 CAM         -1.1330     7.2010    13.6490 c6         1 A1H      -0.064400
     11 CAN         -1.7450     5.9750    12.9090 c6         1 A1H      -0.070400
     12 CAJ         -3.2240     5.6790    13.3510 c6         1 A1H      -0.045700
     13 CAI         -4.1240     6.9670    13.2200 c6         1 A1H      -0.045700
     14 CAH         -5.5620     6.7050    13.7460 c6         1 A1H      -0.072400
     15 CAG         -6.2100     5.4750    13.0640 c6         1 A1H      -0.068400
     16 CAD         -5.3350     4.1940    13.1920 c6         1 A1H      -0.046700
     17 CAC         -5.3370     3.6670    14.6650 c6         1 A1H      -0.102400
     18 CAE         -3.8780     4.4210    12.6290 c6         1 A1H      -0.032000
     19 CAU         -3.9390     4.6260    11.0730 c3         1 A1H      -0.085100
     20 CAF         -3.0660     3.0990    12.8680 c6         1 A1H      -0.074400
     21 CAA         -3.0790     2.6160    14.3400 c6         1 A1H      -0.080400
     22 CAB         -4.5230     2.3630    14.8270 c6         1 A1H       0.230300
     23 OAW         -4.4870     2.0040    16.2160 os         1 A1H      -0.576700
     24 SAX         -5.1670     0.5940    16.6560 s6         1 A1H       1.393800
     25 OAY         -4.2260    -0.4960    16.4210 o          1 A1H      -0.561500
     26 OAZ         -6.5650     0.5380    16.2350 o          1 A1H      -0.561500
     27 NBA         -5.1270     0.8900    18.2390 n8         1 A1H      -1.020100
     28 H1           1.6880    10.6420    14.7750 hc         1 A1H       0.060033
     29 H2           0.5260    10.3080    16.1250 hc         1 A1H       0.060033
     30 H3           0.9490     9.0160    15.0970 hc         1 A1H       0.060033
     31 H4          -1.5950     9.1640    15.5190 hc         1 A1H       0.059700
     32 H5          -2.9030    11.3510    13.7690 hc         1 A1H       0.054200
     33 H6          -3.2480    10.9290    15.4380 hc         1 A1H       0.054200
     34 H7          -4.4770     9.8020    12.9420 hc         1 A1H       0.045200
     35 H8          -5.0230     9.5730    14.5980 hc         1 A1H       0.045200
     36 H9          -3.4190     7.7990    15.0240 hc         1 A1H       0.044700
     37 H10         -2.4170     9.9080    11.8120 hc         1 A1H       0.038367
     38 H11         -0.8760     9.0710    11.6750 hc         1 A1H       0.038367
     39 H12         -2.3700     8.2330    11.2880 hc         1 A1H       0.038367
     40 H13         -1.0350     6.9560    14.7160 hc         1 A1H       0.039200
     41 H14         -0.1140     7.3890    13.2860 hc         1 A1H       0.039200
     42 H15         -1.1050     5.1100    13.1240 hc         1 A1H       0.040200
     43 H16         -1.6850     6.1310    11.8260 hc         1 A1H       0.040200
     44 H17         -3.1660     5.4580    14.4230 hc         1 A1H       0.047700
     45 H18         -4.2070     7.2520    12.1640 hc         1 A1H       0.051700
     46 H19         -6.1930     7.5850    13.5600 hc         1 A1H       0.041700
     47 H20         -5.5490     6.5690    14.8350 hc         1 A1H       0.041700
     48 H21         -6.3960     5.7010    12.0050 hc         1 A1H       0.044200
     49 H22         -7.2010     5.2950    13.5010 hc         1 A1H       0.044200
     50 H23         -5.8170     3.4160    12.5820 hc         1 A1H       0.047700
     51 H24         -4.9480     4.4210    15.3600 hc         1 A1H       0.064200
     52 H25         -6.3720     3.4760    14.9800 hc         1 A1H       0.064200
     53 H26         -2.9380     4.6500    10.6270 hc         1 A1H       0.035367
     54 H27         -4.4750     3.8020    10.5870 hc         1 A1H       0.035367
     55 H28         -4.4470     5.5480    10.7760 hc         1 A1H       0.035367
     56 H29         -3.4920     2.2970    12.2480 hc         1 A1H       0.043700
     57 H30         -2.0310     3.2000    12.5200 hc         1 A1H       0.043700
     58 H31         -2.5040     1.6830    14.4190 hc         1 A1H       0.060200
     59 H32         -2.5750     3.3400    14.9930 hc         1 A1H       0.060200
     60 H33         -4.9780     1.5620    14.2220 h1         1 A1H       0.048700
     61 H34         -4.4210     0.2120    18.5080 hn         1 A1H       0.473000
     62 H35         -4.6150     1.7660    18.1830 hn         1 A1H       0.473000
@<TRIPOS>BOND
     1     1     2 1   
     2     1    28 1   
     3     1    29 1   
     4     1    30 1   
     5     2     3 2   
     6     2     4 1   
     7     4     5 1   
     8     4     8 1   
     9     4    31 1   
    10     5     6 1   
    11     5    32 1   
    12     5    33 1   
    13     6     7 1   
    14     6    34 1   
    15     6    35 1   
    16     7     8 1   
    17     7    13 1   
    18     7    36 1   
    19     8     9 1   
    20     8    10 1   
    21     9    37 1   
    22     9    38 1   
    23     9    39 1   
    24    10    11 1   
    25    10    40 1   
    26    10    41 1   
    27    11    12 1   
    28    11    42 1   
    29    11    43 1   
    30    12    13 1   
    31    12    18 1   
    32    12    44 1   
    33    13    14 1   
    34    13    45 1   
    35    14    15 1   
    36    14    46 1   
    37    14    47 1   
    38    15    16 1   
    39    15    48 1   
    40    15    49 1   
    41    16    17 1   
    42    16    18 1   
    43    16    50 1   
    44    17    22 1   
    45    17    51 1   
    46    17    52 1   
    47    18    19 1   
    48    18    20 1   
    49    19    53 1   
    50    19    54 1   
    51    19    55 1   
    52    20    21 1   
    53    20    56 1   
    54    20    57 1   
    55    21    22 1   
    56    21    58 1   
    57    21    59 1   
    58    22    23 1   
    59    22    60 1   
    60    23    24 1   
    61    24    25 2   
    62    24    26 2   
    63    24    27 1   
    64    27    61 1   
    65    27    62 1   
@<TRIPOS>SUBSTRUCTURE
     1 A1H         1 TEMP              0 ****  ****    0 ROOT
