@<TRIPOS>MOLECULE
A1H
   64    69     1     0     0
SMALL
abcg2


@<TRIPOS>ATOM
      1 C3          38.1630    -1.9440     1.1810 ca         1 A1H      -0.104000
      2 C4          39.4300    -2.1170     0.6420 ca         1 A1H      -0.082300
      3 C5          40.5530    -1.1880     1.0110 c3         1 A1H       0.205100
      4 C8          42.9470     0.9790    -1.0230 cy         1 A1H      -0.082900
      5 C11         45.2040     3.1410    -0.4160 c6         1 A1H       0.190800
      6 C15         46.2840     3.8560    -4.5420 ca         1 A1H       0.032000
      7 C16         45.4430     4.3860    -5.5080 ca         1 A1H      -0.219000
      8 C18         44.0760     5.1690    -7.3260 cc         1 A1H       0.431200
      9 C21         44.5860     5.4650    -5.2370 ca         1 A1H       0.142400
     10 C22         44.5670     6.0310    -3.9630 ca         1 A1H      -0.071000
     11 C23         45.3970     5.5140    -2.9900 ca         1 A1H      -0.029000
     12 C26         45.9660     1.4370    -2.0090 c6         1 A1H       0.190800
     13 C28         43.5780    -0.2510     0.6230 cy         1 A1H      -0.082900
     14 C29         39.6330    -3.1710    -0.2470 ca         1 A1H      -0.086000
     15 C30         38.5930    -4.0180    -0.5810 ca         1 A1H      -0.100000
     16 C31         37.3090    -3.8550    -0.0550 cp         1 A1H      -0.022000
     17 C32         36.2320    -4.7870    -0.4560 cp         1 A1H      -0.042000
     18 C35         34.2530    -6.5830    -1.2740 ca         1 A1H      -0.103000
     19 CL1         35.5870    -2.5500     1.5990 cl         1 A1H      -0.201000
     20 C2          37.1270    -2.8030     0.8380 ca         1 A1H       0.128000
     21 N6          41.1780    -0.6210    -0.1700 n7         1 A1H      -0.851400
     22 C7          42.2240     0.3190     0.1590 cy         1 A1H       0.148500
     23 C9          44.2840     0.8000    -0.2610 cy         1 A1H      -0.068000
     24 C10         44.6910     2.0500     0.5110 c6         1 A1H      -0.058900
     25 N12         46.3160     2.6270    -1.2250 n3         1 A1H      -0.708500
     26 S13         47.2490     3.7530    -1.9940 sy         1 A1H       1.146600
     27 C14         46.2400     4.4360    -3.2860 ca         1 A1H      -0.293500
     28 S17         45.2600     3.9090    -7.1630 ss         1 A1H       0.095800
     29 N20         43.8210     5.8810    -6.2980 nd         1 A1H      -0.524100
     30 O24         48.3540     3.0500    -2.6240 o          1 A1H      -0.530500
     31 O25         47.5260     4.8140    -1.0410 o          1 A1H      -0.530500
     32 C27         45.4740     0.3370    -1.0820 c6         1 A1H      -0.058900
     33 C33         36.3980    -6.1580    -0.2710 ca         1 A1H      -0.089500
     34 C34         35.4140    -7.0510    -0.6750 ca         1 A1H      -0.113000
     35 C36         34.0830    -5.2180    -1.4690 ca         1 A1H      -0.113000
     36 C37         35.0630    -4.3260    -1.0610 ca         1 A1H      -0.089500
     37 H1          37.9770    -1.1380     1.8790 ha         1 A1H       0.126000
     38 H2          41.3160    -1.7480     1.5630 h1         1 A1H       0.040200
     39 H3          40.1770    -0.4210     1.7060 h1         1 A1H       0.040200
     40 H4          42.6400     1.9870    -1.3070 hc         1 A1H       0.059200
     41 H5          42.9080     0.3380    -1.9070 hc         1 A1H       0.059200
     42 H6          45.5520     3.9850     0.1760 h1         1 A1H       0.054450
     43 H7          44.3890     3.4980    -1.0590 h1         1 A1H       0.054450
     44 H8          46.9470     3.0320    -4.7660 ha         1 A1H       0.148000
     45 H9          43.9150     6.8660    -3.7490 ha         1 A1H       0.141000
     46 H10         45.3980     5.9570    -2.0040 ha         1 A1H       0.140000
     47 H11         45.1860     1.6750    -2.7450 h1         1 A1H       0.054450
     48 H12         46.8430     1.0920    -2.5530 h1         1 A1H       0.054450
     49 H13         43.7250    -1.2620     0.2350 hc         1 A1H       0.059200
     50 H14         43.8010    -0.2440     1.6910 hc         1 A1H       0.059200
     51 H15         40.6110    -3.3240    -0.6850 ha         1 A1H       0.130000
     52 H16         38.7670    -4.8260    -1.2810 ha         1 A1H       0.122000
     53 H17         33.4850    -7.2770    -1.5910 ha         1 A1H       0.113000
     54 H18         40.4700    -0.1350    -0.7100 hn         1 A1H       0.417000
     55 H20         41.8800     1.0850     0.8710 h1         1 A1H       0.027700
     56 H21         45.4710     1.7950     1.2360 hc         1 A1H       0.056950
     57 H22         43.8500     2.4570     1.0770 hc         1 A1H       0.056950
     58 H23         45.2030    -0.5290    -1.6910 hc         1 A1H       0.056950
     59 H24         46.2880     0.0240    -0.4200 hc         1 A1H       0.056950
     60 H25         37.2990    -6.5300     0.2010 ha         1 A1H       0.117000
     61 H26         35.5550    -8.1130    -0.5180 ha         1 A1H       0.114000
     62 H27         33.1850    -4.8460    -1.9450 ha         1 A1H       0.114000
     63 H28         34.9260    -3.2650    -1.2310 ha         1 A1H       0.117000
     64 CL19        43.3150     5.3920    -8.8290 cl         1 A1H      -0.042300
@<TRIPOS>BOND
     1     1     2 ar  
     2     1    20 ar  
     3     1    37 1   
     4     2     3 1   
     5     2    14 ar  
     6     3    21 1   
     7     3    38 1   
     8     3    39 1   
     9     4    22 1   
    10     4    23 1   
    11     4    40 1   
    12     4    41 1   
    13     5    24 1   
    14     5    25 1   
    15     5    42 1   
    16     5    43 1   
    17     6     7 ar  
    18     6    27 ar  
    19     6    44 1   
    20     7     9 ar  
    21     7    28 1   
    22     8    28 1   
    23     8    29 2   
    24     8    64 1   
    25     9    10 ar  
    26     9    29 1   
    27    10    11 ar  
    28    10    45 1   
    29    11    27 ar  
    30    11    46 1   
    31    12    25 1   
    32    12    32 1   
    33    12    47 1   
    34    12    48 1   
    35    13    22 1   
    36    13    23 1   
    37    13    49 1   
    38    13    50 1   
    39    14    15 ar  
    40    14    51 1   
    41    15    16 ar  
    42    15    52 1   
    43    16    17 1   
    44    16    20 ar  
    45    17    33 ar  
    46    17    36 ar  
    47    18    34 ar  
    48    18    35 ar  
    49    18    53 1   
    50    19    20 1   
    51    21    22 1   
    52    21    54 1   
    53    22    55 1   
    54    23    24 1   
    55    23    32 1   
    56    24    56 1   
    57    24    57 1   
    58    25    26 1   
    59    26    27 1   
    60    26    30 2   
    61    26    31 2   
    62    32    58 1   
    63    32    59 1   
    64    33    34 ar  
    65    33    60 1   
    66    34    61 1   
    67    35    36 ar  
    68    35    62 1   
    69    36    63 1   
@<TRIPOS>SUBSTRUCTURE
     1 A1H         1 TEMP              0 ****  ****    0 ROOT
