@<TRIPOS>MOLECULE
A1H
   72    77     1     0     0
SMALL
abcg2


@<TRIPOS>ATOM
      1 C36         33.9380    -4.3440    -0.6230 ca         1 A1H      -0.113000
      2 C35         35.1980    -3.8260    -0.3570 ca         1 A1H      -0.089500
      3 C38         34.9410    -6.2410    -1.7000 ca         1 A1H      -0.113000
      4 C34         36.3440    -4.5110    -0.7600 cp         1 A1H      -0.042000
      5 C33         37.6950    -3.9550    -0.5290 cp         1 A1H      -0.022000
      6 C32         38.5380    -3.7250    -1.6190 ca         1 A1H      -0.100000
      7 C31         39.8100    -3.2070    -1.4610 ca         1 A1H      -0.084000
      8 C24         45.4860     4.1310    -5.7070 ca         1 A1H      -0.018400
      9 C25         46.3150     3.9290    -4.6280 ca         1 A1H      -0.020000
     10 C14         46.0710     4.7140    -3.4960 ca         1 A1H      -0.314500
     11 C15         45.0550     5.6630    -3.4560 ca         1 A1H      -0.013000
     12 C16         44.2330     5.8640    -4.5600 ca         1 A1H      -0.137000
     13 C11         44.9120     3.5060    -0.7370 c6         1 A1H       0.186300
     14 C4          40.2980    -2.9080    -0.1910 ca         1 A1H      -0.080300
     15 C5          41.6840    -2.3480    -0.0190 c3         1 A1H       0.209100
     16 C2          38.2000    -3.6490     0.7310 ca         1 A1H       0.128000
     17 CL1         37.2530    -3.9440     2.1560 cl         1 A1H      -0.201000
     18 C3          39.4780    -3.1330     0.9040 ca         1 A1H      -0.104000
     19 N6          41.8350    -1.1170    -0.7720 n7         1 A1H      -0.851400
     20 C7          43.1820    -0.6150    -0.7970 cy         1 A1H       0.155500
     21 C8          43.8890    -0.0890     0.4780 cy         1 A1H      -0.101400
     22 C9          44.4670     1.0630    -0.3690 cy         1 A1H      -0.068000
     23 C10         44.4520     2.4470     0.2520 c6         1 A1H      -0.057900
     24 N12         46.2530     3.1780    -1.2340 n3         1 A1H      -0.697500
     25 S13         47.0240     4.4070    -2.0400 sy         1 A1H       1.144600
     26 C17         44.4590     5.0840    -5.6770 ca         1 A1H       0.056600
     27 N18         43.8300     5.0340    -6.8920 n          1 A1H      -0.291000
     28 C19         42.7090     5.8510    -7.2840 c3         1 A1H       0.101300
     29 C20         44.4220     4.0750    -7.6900 c          1 A1H       0.598000
     30 N21         45.4460     3.5350    -6.9440 n          1 A1H      -0.293000
     31 C22         46.3270     2.4860    -7.3900 c3         1 A1H       0.104300
     32 O23         44.1010     3.7700    -8.8200 o          1 A1H      -0.549000
     33 O26         46.9510     5.5840    -1.1890 o          1 A1H      -0.533500
     34 O27         48.3280     3.9060    -2.4450 o          1 A1H      -0.533500
     35 C28         46.3280     1.8550    -1.8650 c6         1 A1H       0.186300
     36 C29         45.8740     0.7850    -0.8840 c6         1 A1H      -0.057900
     37 C30         43.3820     0.7650    -1.4350 cy         1 A1H      -0.101400
     38 C37         33.8060    -5.5540    -1.2920 ca         1 A1H      -0.103000
     39 C39         36.2010    -5.7210    -1.4370 ca         1 A1H      -0.089500
     40 H1          33.0580    -3.7970    -0.3100 ha         1 A1H       0.113500
     41 H2          35.2880    -2.8750     0.1510 ha         1 A1H       0.117000
     42 H3          34.8480    -7.1840    -2.2220 ha         1 A1H       0.113500
     43 H4          38.1720    -3.9510    -2.6130 ha         1 A1H       0.122000
     44 H5          40.4300    -3.0320    -2.3310 ha         1 A1H       0.129000
     45 H7          44.8950     6.2590    -2.5680 ha         1 A1H       0.138000
     46 H8          43.4470     6.6060    -4.5330 ha         1 A1H       0.129000
     47 H9          44.9360     4.4780    -0.2480 h1         1 A1H       0.054450
     48 H10         44.1960     3.5690    -1.5680 h1         1 A1H       0.054450
     49 H11         42.4110    -3.0690    -0.4070 h1         1 A1H       0.040200
     50 H12         41.9050    -2.2360     1.0520 h1         1 A1H       0.040200
     51 H13         39.8350    -2.9100     1.9020 ha         1 A1H       0.126000
     52 H14         41.2170    -0.4120    -0.3860 hn         1 A1H       0.414000
     53 H16         43.8110    -1.3640    -1.2880 h1         1 A1H       0.066700
     54 H17         43.1640     0.2820     1.2080 hc         1 A1H       0.054950
     55 H18         44.5970    -0.7450     0.9870 hc         1 A1H       0.054950
     56 H19         45.1000     2.4630     1.1330 hc         1 A1H       0.055200
     57 H20         43.4440     2.7050     0.5870 hc         1 A1H       0.055200
     58 H21         41.8570     5.6740    -6.6280 h1         1 A1H       0.055033
     59 H22         42.9720     6.9070    -7.2460 h1         1 A1H       0.055033
     60 H23         42.4250     5.5990    -8.3010 h1         1 A1H       0.055033
     61 H24         47.3640     2.8190    -7.3650 h1         1 A1H       0.054367
     62 H25         46.2240     1.6030    -6.7600 h1         1 A1H       0.054367
     63 H26         46.0720     2.2180    -8.4110 h1         1 A1H       0.054367
     64 H27         45.7000     1.8220    -2.7650 h1         1 A1H       0.054450
     65 H28         47.3540     1.6590    -2.1690 h1         1 A1H       0.054450
     66 H29         45.9260    -0.1820    -1.3910 hc         1 A1H       0.055200
     67 H30         46.5710     0.7420    -0.0410 hc         1 A1H       0.055200
     68 H31         43.6630     0.7980    -2.4900 hc         1 A1H       0.054950
     69 H32         42.5020     1.3980    -1.2950 hc         1 A1H       0.054950
     70 H33         32.8220    -5.9570    -1.4970 ha         1 A1H       0.113000
     71 H34         37.0830    -6.2640    -1.7550 ha         1 A1H       0.117000
     72 H6          47.1170     3.2040    -4.6600 ha         1 A1H       0.143000
@<TRIPOS>BOND
     1     1     2 ar  
     2     1    38 ar  
     3     1    40 1   
     4     2     4 ar  
     5     2    41 1   
     6     3    38 ar  
     7     3    39 ar  
     8     3    42 1   
     9     4     5 1   
    10     4    39 ar  
    11     5     6 ar  
    12     5    16 ar  
    13     6     7 ar  
    14     6    43 1   
    15     7    14 ar  
    16     7    44 1   
    17     8     9 ar  
    18     8    26 ar  
    19     8    30 1   
    20     9    10 ar  
    21     9    72 1   
    22    10    11 ar  
    23    10    25 1   
    24    11    12 ar  
    25    11    45 1   
    26    12    26 ar  
    27    12    46 1   
    28    13    23 1   
    29    13    24 1   
    30    13    47 1   
    31    13    48 1   
    32    14    15 1   
    33    14    18 ar  
    34    15    19 1   
    35    15    49 1   
    36    15    50 1   
    37    16    17 1   
    38    16    18 ar  
    39    18    51 1   
    40    19    20 1   
    41    19    52 1   
    42    20    21 1   
    43    20    37 1   
    44    20    53 1   
    45    21    22 1   
    46    21    54 1   
    47    21    55 1   
    48    22    23 1   
    49    22    36 1   
    50    22    37 1   
    51    23    56 1   
    52    23    57 1   
    53    24    25 1   
    54    24    35 1   
    55    25    33 2   
    56    25    34 2   
    57    26    27 1   
    58    27    28 1   
    59    27    29 1   
    60    28    58 1   
    61    28    59 1   
    62    28    60 1   
    63    29    30 1   
    64    29    32 2   
    65    30    31 1   
    66    31    61 1   
    67    31    62 1   
    68    31    63 1   
    69    35    36 1   
    70    35    64 1   
    71    35    65 1   
    72    36    66 1   
    73    36    67 1   
    74    37    68 1   
    75    37    69 1   
    76    38    70 1   
    77    39    71 1   
@<TRIPOS>SUBSTRUCTURE
     1 A1H         1 TEMP              0 ****  ****    0 ROOT
