@<TRIPOS>MOLECULE
A1H
   62    65     1     0     0
SMALL
abcg2


@<TRIPOS>ATOM
      1 CAT          0.6690    10.1640    14.5850 c3         1 A1H      -0.202100
      2 CAR         -0.6690    10.6230    14.0730 c          1 A1H       0.582100
      3 OAS         -0.7770    11.6350    13.4150 o          1 A1H      -0.522100
      4 CAQ         -1.8580     9.7600    14.4340 c5         1 A1H      -0.166700
      5 CAP         -3.2180    10.4890    14.3760 c5         1 A1H      -0.068400
      6 CAO         -4.2540     9.4490    13.9010 c5         1 A1H      -0.070400
      7 CAK         -3.4910     8.1310    13.9440 c5         1 A1H      -0.062700
      8 CAL         -2.0580     8.5070    13.5320 c5         1 A1H      -0.033000
      9 CAV         -1.9450     8.9020    12.0560 c3         1 A1H      -0.084100
     10 CAM         -1.1650     7.3040    13.8310 c6         1 A1H      -0.064400
     11 CAN         -1.6810     6.0370    13.1430 c6         1 A1H      -0.070400
     12 CAJ         -3.1420     5.7130    13.4780 c6         1 A1H      -0.045700
     13 CAI         -4.0520     6.9280    13.2000 c6         1 A1H      -0.045700
     14 CAH         -5.4930     6.6440    13.6080 c6         1 A1H      -0.072400
     15 CAG         -6.0240     5.3790    12.9490 c6         1 A1H      -0.068400
     16 CAD         -5.1350     4.1680    13.2280 c6         1 A1H      -0.046700
     17 CAC         -5.2730     3.7340    14.6910 c6         1 A1H      -0.102400
     18 CAE         -3.6640     4.4150    12.8080 c6         1 A1H      -0.032000
     19 CAU         -3.5840     4.5010    11.2780 c3         1 A1H      -0.085100
     20 CAF         -2.8390     3.1820    13.2180 c6         1 A1H      -0.074400
     21 CAA         -2.9630     2.7880    14.6860 c6         1 A1H      -0.080400
     22 CAB         -4.4210     2.5210    14.9890 c6         1 A1H       0.230300
     23 OAW         -4.5180     2.1840    16.4040 os         1 A1H      -0.576700
     24 SAX         -5.6120     1.1680    16.9390 s6         1 A1H       1.393800
     25 OAY         -6.6470     1.0040    15.9360 o          1 A1H      -0.561500
     26 OAZ         -5.9810     1.6150    18.2600 o          1 A1H      -0.561500
     27 NBA         -4.6880    -0.1800    17.1380 n8         1 A1H      -1.020100
     28 H1           1.4670    10.8330    14.2710 hc         1 A1H       0.060033
     29 H2           0.6510    10.1090    15.6750 hc         1 A1H       0.060033
     30 H3           0.8900     9.1560    14.2300 hc         1 A1H       0.060033
     31 H4          -1.6870     9.3860    15.4500 hc         1 A1H       0.059700
     32 H5          -3.1780    11.3390    13.6960 hc         1 A1H       0.054200
     33 H6          -3.4710    10.8900    15.3580 hc         1 A1H       0.054200
     34 H7          -4.5980     9.6670    12.8870 hc         1 A1H       0.045200
     35 H8          -5.1410     9.4340    14.5360 hc         1 A1H       0.045200
     36 H9          -3.4310     7.8350    15.0030 hc         1 A1H       0.044700
     37 H10         -2.5020     9.8080    11.8160 hc         1 A1H       0.038367
     38 H11         -0.9020     9.0820    11.7860 hc         1 A1H       0.038367
     39 H12         -2.3090     8.1190    11.3930 hc         1 A1H       0.038367
     40 H13         -1.1350     7.1430    14.9150 hc         1 A1H       0.039200
     41 H14         -0.1330     7.4760    13.5110 hc         1 A1H       0.039200
     42 H15         -1.0360     5.2090    13.4430 hc         1 A1H       0.040200
     43 H16         -1.5550     6.1390    12.0620 hc         1 A1H       0.040200
     44 H17         -3.1790     5.5640    14.5670 hc         1 A1H       0.047700
     45 H18         -4.0510     7.1430    12.1240 hc         1 A1H       0.051700
     46 H19         -6.1300     7.4900    13.3380 hc         1 A1H       0.041700
     47 H20         -5.5510     6.5590    14.6990 hc         1 A1H       0.041700
     48 H21         -6.1020     5.5390    11.8700 hc         1 A1H       0.044200
     49 H22         -7.0410     5.1710    13.2960 hc         1 A1H       0.044200
     50 H23         -5.5020     3.3320    12.6160 hc         1 A1H       0.047700
     51 H24         -4.9860     4.5370    15.3760 hc         1 A1H       0.064200
     52 H25         -6.3250     3.5130    14.8900 hc         1 A1H       0.064200
     53 H26         -2.5490     4.5270    10.9350 hc         1 A1H       0.035367
     54 H27         -4.0500     3.6210    10.8300 hc         1 A1H       0.035367
     55 H28         -4.0860     5.3770    10.8680 hc         1 A1H       0.035367
     56 H29         -3.1760     2.3350    12.6080 hc         1 A1H       0.043700
     57 H30         -1.7870     3.3220    12.9640 hc         1 A1H       0.043700
     58 H31         -2.3650     1.8940    14.8810 hc         1 A1H       0.060200
     59 H32         -2.5830     3.5790    15.3380 hc         1 A1H       0.060200
     60 H33         -4.7560     1.6670    14.3930 h1         1 A1H       0.048700
     61 H34         -5.1230    -0.8400    17.7750 hn         1 A1H       0.473000
     62 H35         -4.4610    -0.6390    16.2610 hn         1 A1H       0.473000
@<TRIPOS>BOND
     1     1     2 1   
     2     1    28 1   
     3     1    29 1   
     4     1    30 1   
     5     2     3 2   
     6     2     4 1   
     7     4     5 1   
     8     4     8 1   
     9     4    31 1   
    10     5     6 1   
    11     5    32 1   
    12     5    33 1   
    13     6     7 1   
    14     6    34 1   
    15     6    35 1   
    16     7     8 1   
    17     7    13 1   
    18     7    36 1   
    19     8     9 1   
    20     8    10 1   
    21     9    37 1   
    22     9    38 1   
    23     9    39 1   
    24    10    11 1   
    25    10    40 1   
    26    10    41 1   
    27    11    12 1   
    28    11    42 1   
    29    11    43 1   
    30    12    13 1   
    31    12    18 1   
    32    12    44 1   
    33    13    14 1   
    34    13    45 1   
    35    14    15 1   
    36    14    46 1   
    37    14    47 1   
    38    15    16 1   
    39    15    48 1   
    40    15    49 1   
    41    16    17 1   
    42    16    18 1   
    43    16    50 1   
    44    17    22 1   
    45    17    51 1   
    46    17    52 1   
    47    18    19 1   
    48    18    20 1   
    49    19    53 1   
    50    19    54 1   
    51    19    55 1   
    52    20    21 1   
    53    20    56 1   
    54    20    57 1   
    55    21    22 1   
    56    21    58 1   
    57    21    59 1   
    58    22    23 1   
    59    22    60 1   
    60    23    24 1   
    61    24    25 2   
    62    24    26 2   
    63    24    27 1   
    64    27    61 1   
    65    27    62 1   
@<TRIPOS>SUBSTRUCTURE
     1 A1H         1 TEMP              0 ****  ****    0 ROOT
