@<TRIPOS>MOLECULE
A1H
   69    73     1     0     0
SMALL
abcg2


@<TRIPOS>ATOM
      1 C4         -10.4830     3.1310    18.8870 ca         1 A1H      -0.079300
      2 C9         -16.0630     0.4150    18.3350 c6         1 A1H      -0.057700
      3 N12        -18.1950    -1.5180    18.1940 n3         1 A1H      -0.760500
      4 C17        -18.1490    -6.2940    17.1910 ca         1 A1H      -0.139000
      5 C19        -17.9580    -4.9240    15.2150 ca         1 A1H      -0.100000
      6 C20        -18.4440    -3.8000    15.9240 ca         1 A1H       0.345000
      7 C22        -18.2640    -2.4800    14.0730 ca         1 A1H       0.378900
      8 C25        -17.6240    -4.7510    13.8540 ca         1 A1H      -0.057000
      9 C28        -15.8230    -1.0740    18.5690 c6         1 A1H      -0.075900
     10 C29         -9.1360     2.7990    18.8160 ca         1 A1H      -0.109000
     11 C30         -8.1900     3.7500    18.4680 ca         1 A1H      -0.097000
     12 C33         -7.2790     7.1910    18.5570 ca         1 A1H      -0.089500
     13 C35         -5.4620     7.8190    17.1090 ca         1 A1H      -0.104000
     14 C2          -9.9060     5.3770    18.2390 ca         1 A1H       0.127000
     15 C3         -10.8610     4.4360    18.5830 ca         1 A1H      -0.082000
     16 C5         -11.5160     2.1150    19.2900 c3         1 A1H       0.204100
     17 N6         -12.6290     2.0830    18.3620 n7         1 A1H      -0.860400
     18 C7         -13.6780     1.1770    18.7950 c3         1 A1H       0.157800
     19 C8         -14.8310     1.1440    17.8040 c3         1 A1H      -0.075400
     20 C10        -17.2530     0.5760    17.3950 c6         1 A1H      -0.075900
     21 C11        -18.4940    -0.1120    17.9380 c6         1 A1H       0.220300
     22 S13        -19.4220    -2.6090    18.2410 sy         1 A1H       1.183600
     23 O14        -20.5730    -2.0420    17.5580 o          1 A1H      -0.545500
     24 C15        -18.7750    -3.9690    17.2960 ca         1 A1H      -0.244500
     25 C16        -18.6310    -5.1840    17.9110 ca         1 A1H       0.010000
     26 C18        -17.8210    -6.1680    15.8710 ca         1 A1H      -0.037000
     27 N21        -18.5860    -2.5960    15.3320 nb         1 A1H      -0.665000
     28 C23        -17.7680    -3.5280    13.2590 ca         1 A1H      -0.134300
     29 C24        -17.4220    -3.2680    11.8270 c3         1 A1H      -0.043800
     30 O26        -19.6170    -3.1040    19.6010 o          1 A1H      -0.545500
     31 C27        -17.0710    -1.7660    19.0940 c6         1 A1H       0.220300
     32 C31         -8.5480     5.0640    18.1760 cp         1 A1H      -0.025000
     33 C32         -7.5020     6.0410    17.8020 cp         1 A1H      -0.040000
     34 C34         -6.2650     8.0730    18.2140 ca         1 A1H      -0.113500
     35 C36         -5.6760     6.6750    16.3530 ca         1 A1H      -0.113500
     36 C37         -6.6880     5.7900    16.7000 ca         1 A1H      -0.089500
     37 H1         -16.3330     0.8710    19.2970 hc         1 A1H       0.046700
     38 H3         -18.3930    -1.4940    13.6340 h4         1 A1H       0.022100
     39 H4         -17.2510    -5.6000    13.2920 ha         1 A1H       0.119000
     40 H5         -15.5140    -1.5460    17.6300 hc         1 A1H       0.048950
     41 H6         -15.0220    -1.2400    19.2910 hc         1 A1H       0.048950
     42 H7          -8.8190     1.7870    19.0370 ha         1 A1H       0.114000
     43 H8          -7.1440     3.4730    18.4270 ha         1 A1H       0.121000
     44 H9          -7.8920     7.3920    19.4270 ha         1 A1H       0.116500
     45 H10         -4.6720     8.5090    16.8410 ha         1 A1H       0.112000
     46 H11        -11.9070     4.7140    18.6080 ha         1 A1H       0.144000
     47 H12        -11.9120     2.3850    20.2750 h1         1 A1H       0.038200
     48 H13        -11.0290     1.1370    19.4180 h1         1 A1H       0.038200
     49 H14        -12.2880     1.7880    17.4540 hn         1 A1H       0.411000
     50 H16        -14.0520     1.5330    19.7620 h1         1 A1H       0.029200
     51 H17        -13.2980     0.1590    18.9710 h1         1 A1H       0.029200
     52 H18        -14.5070     0.6780    16.8660 hc         1 A1H       0.049200
     53 H19        -15.1070     2.1750    17.5630 hc         1 A1H       0.049200
     54 H20        -17.0090     0.1570    16.4140 hc         1 A1H       0.048950
     55 H21        -17.4820     1.6340    17.2480 hc         1 A1H       0.048950
     56 H22        -18.8230     0.3880    18.8570 h1         1 A1H       0.052200
     57 H23        -19.3020    -0.0420    17.2130 h1         1 A1H       0.052200
     58 H24        -18.8840    -5.3040    18.9550 ha         1 A1H       0.146000
     59 H25        -17.4510    -7.0180    15.3110 ha         1 A1H       0.118000
     60 H26        -18.2650    -2.8320    11.2900 hc         1 A1H       0.047367
     61 H27        -16.5910    -2.5650    11.7460 hc         1 A1H       0.047367
     62 H28        -17.1350    -4.1860    11.3160 hc         1 A1H       0.047367
     63 H29        -17.2980    -1.4070    20.1050 h1         1 A1H       0.052200
     64 H30        -16.8870    -2.8390    19.1620 h1         1 A1H       0.052200
     65 H31         -6.1000     8.9590    18.8140 ha         1 A1H       0.113500
     66 H32         -5.0550     6.4690    15.4910 ha         1 A1H       0.113500
     67 H33         -6.8520     4.9020    16.1020 ha         1 A1H       0.116500
     68 CL1        -10.4510     6.9750    17.8310 cl         1 A1H      -0.201000
     69 H2         -18.0420    -7.2450    17.6950 ha         1 A1H       0.123000
@<TRIPOS>BOND
     1     1    10 ar  
     2     1    15 ar  
     3     1    16 1   
     4     2     9 1   
     5     2    19 1   
     6     2    20 1   
     7     2    37 1   
     8     3    21 1   
     9     3    22 1   
    10     3    31 1   
    11     4    25 ar  
    12     4    26 ar  
    13     4    69 1   
    14     5     6 ar  
    15     5     8 ar  
    16     5    26 ar  
    17     6    24 ar  
    18     6    27 ar  
    19     7    27 ar  
    20     7    28 ar  
    21     7    38 1   
    22     8    28 ar  
    23     8    39 1   
    24     9    31 1   
    25     9    40 1   
    26     9    41 1   
    27    10    11 ar  
    28    10    42 1   
    29    11    32 ar  
    30    11    43 1   
    31    12    33 ar  
    32    12    34 ar  
    33    12    44 1   
    34    13    34 ar  
    35    13    35 ar  
    36    13    45 1   
    37    14    15 ar  
    38    14    32 ar  
    39    14    68 1   
    40    15    46 1   
    41    16    17 1   
    42    16    47 1   
    43    16    48 1   
    44    17    18 1   
    45    17    49 1   
    46    18    19 1   
    47    18    50 1   
    48    18    51 1   
    49    19    52 1   
    50    19    53 1   
    51    20    21 1   
    52    20    54 1   
    53    20    55 1   
    54    21    56 1   
    55    21    57 1   
    56    22    23 2   
    57    22    24 1   
    58    22    30 2   
    59    24    25 ar  
    60    25    58 1   
    61    26    59 1   
    62    28    29 1   
    63    29    60 1   
    64    29    61 1   
    65    29    62 1   
    66    31    63 1   
    67    31    64 1   
    68    32    33 1   
    69    33    36 ar  
    70    34    65 1   
    71    35    36 ar  
    72    35    66 1   
    73    36    67 1   
@<TRIPOS>SUBSTRUCTURE
     1 A1H         1 TEMP              0 ****  ****    0 ROOT
