@<TRIPOS>MOLECULE
A1H
   66    70     1     0     0
SMALL
No Charge or Current Charge


@<TRIPOS>ATOM
      1 C4           3.9640   -38.2120    -1.4800 ca         1 A1H      -0.076300
      2 C5           3.1770   -39.4920    -1.2370 c3         1 A1H       0.203100
      3 C7           1.4020   -40.4750     0.2370 c3         1 A1H       0.162800
      4 C8           0.3990   -40.9030    -0.8610 c3         1 A1H      -0.072400
      5 C10         -1.6410   -42.2990    -1.5520 c6         1 A1H      -0.071400
      6 C15         -3.3870   -45.9910     2.1090 ca         1 A1H       0.032000
      7 C22         -5.8490   -44.6330     1.8270 ca         1 A1H      -0.075000
      8 C26         -0.9030   -44.4700     0.2690 c6         1 A1H       0.187300
      9 C2           4.1110   -35.9740    -2.4550 ca         1 A1H       0.130000
     10 C3           3.3940   -37.1610    -2.2220 ca         1 A1H      -0.084000
     11 C9          -0.5950   -42.0290    -0.4400 c6         1 A1H      -0.062700
     12 C11         -2.6110   -43.4360    -1.1500 c6         1 A1H       0.187300
     13 C14         -3.8560   -45.6410     0.8250 ca         1 A1H      -0.299500
     14 C16         -4.1660   -45.6430     3.2230 ca         1 A1H      -0.213000
     15 C18         -5.2950   -45.1670     5.2880 cc         1 A1H       0.420200
     16 C23         -5.0920   -44.9650     0.6860 ca         1 A1H      -0.030000
     17 S17         -3.7610   -45.9780     4.8970 ss         1 A1H       0.028800
     18 Cl1          3.3340   -34.7330    -3.4410 cl         1 A1H      -0.199000
     19 N6           2.1830   -39.2860    -0.1650 n7         1 A1H      -0.861400
     20 N12         -1.8800   -44.6900    -0.8310 n3         1 A1H      -0.702500
     21 S13         -2.8780   -46.0610    -0.6300 sy         1 A1H       1.144600
     22 C19         -5.7200   -45.0390     6.7210 c3         1 A1H      -0.124400
     23 N20         -6.0430   -44.6940     4.2800 nd         1 A1H      -0.543100
     24 C21         -5.3690   -44.9790     3.0990 ca         1 A1H       0.141400
     25 O24         -1.9810   -47.1790    -0.3160 o          1 A1H      -0.532000
     26 O25         -3.7460   -46.1110    -1.8120 o          1 A1H      -0.532000
     27 C27          0.1180   -43.3620    -0.0850 c6         1 A1H      -0.071400
     28 C28          5.2690   -38.0670    -0.9750 ca         1 A1H      -0.110000
     29 C29          5.9900   -36.8840    -1.2070 ca         1 A1H      -0.096000
     30 C30          5.4280   -35.8120    -1.9430 cp         1 A1H      -0.022000
     31 C31          6.2300   -34.5700    -2.1600 cp         1 A1H      -0.042000
     32 C32          5.7250   -33.2930    -1.8120 ca         1 A1H      -0.089500
     33 C33          6.4950   -32.1320    -2.0060 ca         1 A1H      -0.113500
     34 C34          7.7880   -32.2290    -2.5450 ca         1 A1H      -0.103000
     35 C35          8.3120   -33.4870    -2.8860 ca         1 A1H      -0.113500
     36 C36          7.5410   -34.6460    -2.6910 ca         1 A1H      -0.089500
     37 H1           2.6860   -39.7850    -2.1750 h1         1 A1H       0.039200
     38 H2           3.8730   -40.2980    -0.9660 h1         1 A1H       0.039200
     39 H3           0.8330   -40.2420     1.1470 h1         1 A1H       0.027700
     40 H4           2.0740   -41.3100     0.4750 h1         1 A1H       0.027700
     41 H5           0.9540   -41.2260    -1.7500 hc         1 A1H       0.051700
     42 H6          -0.1730   -40.0160    -1.1620 hc         1 A1H       0.051700
     43 H7          -2.2160   -41.3870    -1.7610 hc         1 A1H       0.054200
     44 H8          -1.1340   -42.5720    -2.4880 hc         1 A1H       0.054200
     45 H10         -6.7970   -44.1120     1.7240 ha         1 A1H       0.138000
     46 H11         -0.3410   -45.3900     0.4820 h1         1 A1H       0.054200
     47 H12         -1.4240   -44.1890     1.1960 h1         1 A1H       0.054200
     48 H13          2.3890   -37.2670    -2.6230 ha         1 A1H       0.133000
     49 H14         -1.1240   -41.6640     0.4520 hc         1 A1H       0.042700
     50 H15         -3.2080   -43.1060    -0.2870 h1         1 A1H       0.054200
     51 H16         -3.3100   -43.5930    -1.9850 h1         1 A1H       0.054200
     52 H17         -5.4680   -44.6940    -0.2990 ha         1 A1H       0.139000
     53 H18          2.7000   -38.9590     0.6610 hn         1 A1H       0.413000
     54 H20         -6.4880   -44.2660     6.8390 hc         1 A1H       0.066033
     55 H21         -6.1310   -45.9870     7.0850 hc         1 A1H       0.066033
     56 H22         -4.8680   -44.7690     7.3550 hc         1 A1H       0.066033
     57 H23          0.7350   -43.6950    -0.9310 hc         1 A1H       0.054200
     58 H24          0.7970   -43.2210     0.7650 hc         1 A1H       0.054200
     59 H25          5.7250   -38.8700    -0.4010 ha         1 A1H       0.113000
     60 H26          6.9960   -36.7880    -0.8030 ha         1 A1H       0.121000
     61 H27          4.7310   -33.2050    -1.3800 ha         1 A1H       0.117000
     62 H28          6.0900   -31.1600    -1.7340 ha         1 A1H       0.113500
     63 H29          8.3840   -31.3310    -2.6940 ha         1 A1H       0.113000
     64 H30          9.3150   -33.5640    -3.3000 ha         1 A1H       0.113500
     65 H31          7.9580   -35.6140    -2.9600 ha         1 A1H       0.117000
     66 H9          -2.4420   -46.5150     2.2430 ha         1 A1H       0.145000
@<TRIPOS>BOND
     1     1     2 1   
     2     1    10 ar  
     3     1    28 ar  
     4     2    19 1   
     5     2    37 1   
     6     2    38 1   
     7     3     4 1   
     8     3    19 1   
     9     3    39 1   
    10     3    40 1   
    11     4    11 1   
    12     4    41 1   
    13     4    42 1   
    14     5    11 1   
    15     5    12 1   
    16     5    43 1   
    17     5    44 1   
    18     6    13 ar  
    19     6    14 ar  
    20     6    66 1   
    21     7    16 ar  
    22     7    24 ar  
    23     7    45 1   
    24     8    20 1   
    25     8    27 1   
    26     8    46 1   
    27     8    47 1   
    28     9    10 ar  
    29     9    18 1   
    30     9    30 ar  
    31    10    48 1   
    32    11    27 1   
    33    11    49 1   
    34    12    20 1   
    35    12    50 1   
    36    12    51 1   
    37    13    16 ar  
    38    13    21 1   
    39    14    17 1   
    40    14    24 ar  
    41    15    17 1   
    42    15    22 1   
    43    15    23 2   
    44    16    52 1   
    45    19    53 1   
    46    20    21 1   
    47    21    25 2   
    48    21    26 2   
    49    22    54 1   
    50    22    55 1   
    51    22    56 1   
    52    23    24 1   
    53    27    57 1   
    54    27    58 1   
    55    28    29 ar  
    56    28    59 1   
    57    29    30 ar  
    58    29    60 1   
    59    30    31 1   
    60    31    32 ar  
    61    31    36 ar  
    62    32    33 ar  
    63    32    61 1   
    64    33    34 ar  
    65    33    62 1   
    66    34    35 ar  
    67    34    63 1   
    68    35    36 ar  
    69    35    64 1   
    70    36    65 1   
@<TRIPOS>SUBSTRUCTURE
     1 A1H         1 TEMP              0 ****  ****    0 ROOT
