@<TRIPOS>MOLECULE
A1H
   66    68     1     0     0
SMALL
abcg2


@<TRIPOS>ATOM
      1 C1         124.9300   135.5810   160.4280 c3         1 A1H      -0.089100
      2 C2         126.1870   135.8440   161.2470 c3         1 A1H      -0.073400
      3 C3         127.4530   135.2290   160.6570 c3         1 A1H      -0.073400
      4 C4         127.4560   133.7050   160.6270 c3         1 A1H      -0.075400
      5 C5         128.7670   133.1250   160.1070 c3         1 A1H      -0.076400
      6 C6         128.7460   131.6020   160.0740 c3         1 A1H      -0.064400
      7 C7         130.0530   130.9160   159.6250 c3         1 A1H       0.002300
      8 C8         129.8500   129.3960   159.7090 c3         1 A1H      -0.083100
      9 C9         130.3410   131.2700   158.1650 c3         1 A1H      -0.083100
     10 C10        131.1980   131.3070   160.5540 ca         1 A1H       0.001700
     11 C11        132.4160   131.7680   160.0780 ca         1 A1H      -0.180000
     12 C12        133.4380   132.1200   160.9610 ca         1 A1H       0.181100
     13 C15        133.8030   133.7020   164.2350 c6         1 A1H      -0.038200
     14 C16        134.9220   134.3210   165.0280 c2         1 A1H      -0.123400
     15 C17        136.1970   134.2030   164.6600 c2         1 A1H      -0.208200
     16 C18        136.6460   133.5330   163.3980 c6         1 A1H      -0.033200
     17 C19        135.4650   133.2710   162.4740 c6         1 A1H      -0.087700
     18 C20        135.7860   132.4820   161.2050 c6         1 A1H       0.198000
     19 C23        134.5360   135.0780   166.2630 c3         1 A1H       0.201800
     20 C24        132.0690   131.5100   162.8040 ca         1 A1H       0.176100
     21 C25        131.0530   131.1500   161.9320 ca         1 A1H      -0.183000
     22 C13        133.2650   132.0790   162.3440 ca         1 A1H      -0.248300
     23 C14        134.3250   132.6290   163.2690 c6         1 A1H       0.003600
     24 C21        136.8450   133.1780   160.3670 c3         1 A1H      -0.099600
     25 C22        136.1970   131.0360   161.4730 c3         1 A1H      -0.099600
     26 O1         134.6000   132.5040   160.3910 os         1 A1H      -0.352100
     27 O2         133.9610   134.1850   167.1980 oh         1 A1H      -0.659000
     28 O3         131.8330   131.2890   164.1200 oh         1 A1H      -0.547100
     29 H1         124.0650   136.0860   160.8590 hc         1 A1H       0.030367
     30 H2         125.0460   135.9450   159.4050 hc         1 A1H       0.030367
     31 H3         124.6920   134.5190   160.3740 hc         1 A1H       0.030367
     32 H4         126.0460   135.4690   162.2660 hc         1 A1H       0.036200
     33 H5         126.3300   136.9240   161.3410 hc         1 A1H       0.036200
     34 H6         128.3160   135.5720   161.2360 hc         1 A1H       0.036700
     35 H7         127.6010   135.6110   159.6400 hc         1 A1H       0.036700
     36 H8         127.2670   133.3230   161.6370 hc         1 A1H       0.036700
     37 H9         126.6330   133.3390   160.0050 hc         1 A1H       0.036700
     38 H10        128.9600   133.5230   159.1070 hc         1 A1H       0.043200
     39 H11        129.5890   133.4710   160.7400 hc         1 A1H       0.043200
     40 H12        128.4710   131.2300   161.0660 hc         1 A1H       0.038700
     41 H13        127.9480   131.2680   159.4020 hc         1 A1H       0.038700
     42 H14        129.5970   129.0760   160.7210 hc         1 A1H       0.036367
     43 H15        129.0360   129.0840   159.0510 hc         1 A1H       0.036367
     44 H16        130.7510   128.8630   159.4040 hc         1 A1H       0.036367
     45 H17        131.1800   130.6960   157.7690 hc         1 A1H       0.036367
     46 H18        129.4690   131.0340   157.5530 hc         1 A1H       0.036367
     47 H19        130.5660   132.3280   158.0230 hc         1 A1H       0.036367
     48 H20        132.6090   131.8580   159.0180 ha         1 A1H       0.129000
     49 H21        133.2760   134.4760   163.6640 hc         1 A1H       0.060700
     50 H22        133.0650   133.3010   164.9300 hc         1 A1H       0.060700
     51 H23        136.9720   134.6350   165.2870 ha         1 A1H       0.173000
     52 H24        137.1750   132.6040   163.6420 hc         1 A1H       0.051700
     53 H25        137.3820   134.1720   162.9040 hc         1 A1H       0.051700
     54 H26        135.1090   134.2510   162.1270 hc         1 A1H       0.066700
     55 H27        135.4190   135.5800   166.6760 h1         1 A1H       0.025200
     56 H28        133.8210   135.8650   165.9860 h1         1 A1H       0.025200
     57 H29        130.1450   130.7320   162.3500 ha         1 A1H       0.128000
     58 H30        134.7500   131.8110   163.8710 hc         1 A1H       0.053700
     59 H31        137.8150   133.1350   160.8600 hc         1 A1H       0.046533
     60 H32        136.9500   132.6920   159.3950 hc         1 A1H       0.046533
     61 H33        136.5960   134.2280   160.2020 hc         1 A1H       0.046533
     62 H34        135.4360   130.4710   162.0120 hc         1 A1H       0.046533
     63 H35        136.3990   130.5200   160.5340 hc         1 A1H       0.046533
     64 H36        137.1100   131.0070   162.0680 hc         1 A1H       0.046533
     65 H37        133.4650   134.7010   167.8400 ho         1 A1H       0.443000
     66 H38        132.6530   131.2740   164.6250 ho         1 A1H       0.470000
@<TRIPOS>BOND
     1     1     2 1   
     2     1    29 1   
     3     1    30 1   
     4     1    31 1   
     5     2     3 1   
     6     2    32 1   
     7     2    33 1   
     8     3     4 1   
     9     3    34 1   
    10     3    35 1   
    11     4     5 1   
    12     4    36 1   
    13     4    37 1   
    14     5     6 1   
    15     5    38 1   
    16     5    39 1   
    17     6     7 1   
    18     6    40 1   
    19     6    41 1   
    20     7     8 1   
    21     7     9 1   
    22     7    10 1   
    23     8    42 1   
    24     8    43 1   
    25     8    44 1   
    26     9    45 1   
    27     9    46 1   
    28     9    47 1   
    29    10    11 ar  
    30    10    21 ar  
    31    11    12 ar  
    32    11    48 1   
    33    12    22 ar  
    34    12    26 1   
    35    13    14 1   
    36    13    23 1   
    37    13    49 1   
    38    13    50 1   
    39    14    15 2   
    40    14    19 1   
    41    15    16 1   
    42    15    51 1   
    43    16    17 1   
    44    16    52 1   
    45    16    53 1   
    46    17    18 1   
    47    17    23 1   
    48    17    54 1   
    49    18    24 1   
    50    18    25 1   
    51    18    26 1   
    52    19    27 1   
    53    19    55 1   
    54    19    56 1   
    55    20    21 ar  
    56    20    22 ar  
    57    20    28 1   
    58    21    57 1   
    59    22    23 1   
    60    23    58 1   
    61    24    59 1   
    62    24    60 1   
    63    24    61 1   
    64    25    62 1   
    65    25    63 1   
    66    25    64 1   
    67    27    65 1   
    68    28    66 1   
@<TRIPOS>SUBSTRUCTURE
     1 A1H         1 TEMP              0 ****  ****    0 ROOT
