@<TRIPOS>MOLECULE
A1H
   66    70     1     0     0
SMALL
abcg2


@<TRIPOS>ATOM
      1 C4           4.0910   -38.3560    -1.4640 ca         1 A1H      -0.076300
      2 C5           3.3010   -39.6020    -1.1710 c3         1 A1H       0.203100
      3 C7           1.3360   -40.4220     0.0190 c3         1 A1H       0.162800
      4 C8           0.3900   -40.8880    -1.0820 c3         1 A1H      -0.072400
      5 C10         -1.7280   -42.1540    -1.6250 c6         1 A1H      -0.071400
      6 C15         -3.3680   -45.9830     2.0590 ca         1 A1H       0.032000
      7 C22         -5.7740   -44.4990     2.0680 ca         1 A1H      -0.075000
      8 C26         -0.9860   -44.3230     0.1340 c6         1 A1H       0.187300
      9 C2           4.5460   -36.4380    -2.8480 ca         1 A1H       0.130000
     10 C3           3.8560   -37.6180    -2.6170 ca         1 A1H      -0.084000
     11 C9          -0.6040   -41.9490    -0.6150 c6         1 A1H      -0.062700
     12 C11         -2.7430   -43.1700    -1.1300 c6         1 A1H       0.187300
     13 C14         -3.9250   -45.4930     0.8890 ca         1 A1H      -0.299500
     14 C16         -4.0380   -45.7100     3.2410 ca         1 A1H      -0.213000
     15 C18         -5.0670   -45.3490     5.4220 cc         1 A1H       0.420200
     16 C23         -5.1180   -44.7610     0.8840 ca         1 A1H      -0.030000
     17 S17         -3.6270   -46.1680     4.8550 ss         1 A1H       0.028800
     18 CL1          4.2550   -35.6140    -4.3490 cl         1 A1H      -0.199000
     19 N6           2.1290   -39.2670    -0.3770 n7         1 A1H      -0.861400
     20 N12         -2.0750   -44.4450    -0.8420 n3         1 A1H      -0.702500
     21 S13         -3.0710   -45.7530    -0.6430 sy         1 A1H       1.144600
     22 C19         -5.3850   -45.3330     6.8720 c3         1 A1H      -0.124400
     23 N20         -5.7820   -44.7930     4.5080 nd         1 A1H      -0.543100
     24 C21         -5.2350   -44.9750     3.2630 ca         1 A1H       0.141400
     25 O24         -2.2270   -46.9260    -0.4910 o          1 A1H      -0.532000
     26 O25         -4.0560   -45.7180    -1.7110 o          1 A1H      -0.532000
     27 C27          0.0390   -43.3040    -0.3380 c6         1 A1H      -0.071400
     28 C28          5.0340   -37.8840    -0.5560 ca         1 A1H      -0.110000
     29 C29          5.7040   -36.6950    -0.7890 ca         1 A1H      -0.096000
     30 C30          5.4720   -35.9340    -1.9350 cp         1 A1H      -0.022000
     31 C31          6.2030   -34.6630    -2.1250 cp         1 A1H      -0.042000
     32 C32          5.5200   -33.4580    -2.2960 ca         1 A1H      -0.089500
     33 C33          6.2170   -32.2660    -2.4260 ca         1 A1H      -0.113500
     34 C34          7.6060   -32.2600    -2.3890 ca         1 A1H      -0.103000
     35 C35          8.2930   -33.4520    -2.2140 ca         1 A1H      -0.113500
     36 C36          7.5960   -34.6450    -2.0810 ca         1 A1H      -0.089500
     37 H1           2.9770   -40.0580    -2.1090 h1         1 A1H       0.039200
     38 H2           3.9510   -40.3380    -0.6730 h1         1 A1H       0.039200
     39 H3           0.7360   -40.1200     0.8810 h1         1 A1H       0.027700
     40 H4           1.9670   -41.2580     0.3600 h1         1 A1H       0.027700
     41 H5           0.9510   -41.2700    -1.9420 hc         1 A1H       0.051700
     42 H6          -0.1650   -40.0150    -1.4380 hc         1 A1H       0.051700
     43 H7          -2.2530   -41.2140    -1.8090 hc         1 A1H       0.054200
     44 H8          -1.3140   -42.4840    -2.5830 hc         1 A1H       0.054200
     45 H10         -6.7000   -43.9400     2.0750 ha         1 A1H       0.138000
     46 H11         -0.5070   -45.2920     0.2600 h1         1 A1H       0.054200
     47 H12         -1.3810   -44.0130     1.1120 h1         1 A1H       0.054200
     48 H13          3.1400   -37.9730    -3.3480 ha         1 A1H       0.133000
     49 H14         -1.0640   -41.5980     0.3190 hc         1 A1H       0.042700
     50 H15         -3.2370   -42.7810    -0.2290 h1         1 A1H       0.054200
     51 H16         -3.5070   -43.3280    -1.8880 h1         1 A1H       0.054200
     52 H17         -5.5380   -44.4040    -0.0470 ha         1 A1H       0.139000
     53 H18          2.4410   -38.7890     0.4600 hn         1 A1H       0.413000
     54 H20         -6.2990   -44.7700     7.0420 hc         1 A1H       0.066033
     55 H21         -5.5200   -46.3460     7.2520 hc         1 A1H       0.066033
     56 H22         -4.5770   -44.8750     7.4440 hc         1 A1H       0.066033
     57 H23          0.5310   -43.6690    -1.2460 hc         1 A1H       0.054200
     58 H24          0.8070   -43.2280     0.4330 hc         1 A1H       0.054200
     59 H25          5.2440   -38.4460     0.3470 ha         1 A1H       0.113000
     60 H26          6.4190   -36.3330    -0.0610 ha         1 A1H       0.121000
     61 H27          4.4380   -33.4480    -2.3100 ha         1 A1H       0.117000
     62 H28          5.6730   -31.3390    -2.5520 ha         1 A1H       0.113500
     63 H29          8.1480   -31.3280    -2.4920 ha         1 A1H       0.113000
     64 H30          9.3750   -33.4570    -2.1820 ha         1 A1H       0.113500
     65 H31          8.1390   -35.5730    -1.9480 ha         1 A1H       0.117000
     66 H9          -2.4520   -46.5590     2.0550 ha         1 A1H       0.145000
@<TRIPOS>BOND
     1     1     2 1   
     2     1    10 ar  
     3     1    28 ar  
     4     2    19 1   
     5     2    37 1   
     6     2    38 1   
     7     3     4 1   
     8     3    19 1   
     9     3    39 1   
    10     3    40 1   
    11     4    11 1   
    12     4    41 1   
    13     4    42 1   
    14     5    11 1   
    15     5    12 1   
    16     5    43 1   
    17     5    44 1   
    18     6    13 ar  
    19     6    14 ar  
    20     6    66 1   
    21     7    16 ar  
    22     7    24 ar  
    23     7    45 1   
    24     8    20 1   
    25     8    27 1   
    26     8    46 1   
    27     8    47 1   
    28     9    10 ar  
    29     9    18 1   
    30     9    30 ar  
    31    10    48 1   
    32    11    27 1   
    33    11    49 1   
    34    12    20 1   
    35    12    50 1   
    36    12    51 1   
    37    13    16 ar  
    38    13    21 1   
    39    14    17 1   
    40    14    24 ar  
    41    15    17 1   
    42    15    22 1   
    43    15    23 2   
    44    16    52 1   
    45    19    53 1   
    46    20    21 1   
    47    21    25 2   
    48    21    26 2   
    49    22    54 1   
    50    22    55 1   
    51    22    56 1   
    52    23    24 1   
    53    27    57 1   
    54    27    58 1   
    55    28    29 ar  
    56    28    59 1   
    57    29    30 ar  
    58    29    60 1   
    59    30    31 1   
    60    31    32 ar  
    61    31    36 ar  
    62    32    33 ar  
    63    32    61 1   
    64    33    34 ar  
    65    33    62 1   
    66    34    35 ar  
    67    34    63 1   
    68    35    36 ar  
    69    35    64 1   
    70    36    65 1   
@<TRIPOS>SUBSTRUCTURE
     1 A1H         1 TEMP              0 ****  ****    0 ROOT
