@<TRIPOS>MOLECULE
A1H
   68    71     1     0     0
SMALL
abcg2


@<TRIPOS>ATOM
      1 O1          47.6100     4.4620    -0.9890 o          1 A1H      -0.535000
      2 S2          47.3530     3.6650    -2.1800 sy         1 A1H       1.166600
      3 C3          45.8200     4.2180    -2.8810 ca         1 A1H      -0.269500
      4 C4          45.1600     5.3070    -2.3050 ca         1 A1H      -0.030000
      5 C5          43.9660     5.7490    -2.8360 ca         1 A1H      -0.075000
      6 C6          43.4350     5.0930    -3.9450 ca         1 A1H       0.133400
      7 C7          44.1230     4.0020    -4.5060 ca         1 A1H      -0.219000
      8 S8          43.2260     3.3930    -5.8520 ss         1 A1H       0.044800
      9 C9          42.0380     4.6210    -5.5580 cc         1 A1H       0.400100
     10 N10         42.2560     5.4140    -4.5700 nd         1 A1H      -0.528100
     11 C11         45.3260     3.5510    -3.9890 ca         1 A1H       0.044000
     12 N12         47.0010     2.0970    -1.8300 n3         1 A1H      -0.765500
     13 C13         48.1160     1.1730    -1.8590 c3         1 A1H       0.155800
     14 C14         48.5530     0.7450    -3.2430 c          1 A1H       0.596100
     15 O15         47.5670     0.7410    -4.1210 os         1 A1H      -0.435100
     16 C16         47.8740     0.3180    -5.4490 c3         1 A1H       0.148900
     17 O17         49.6770     0.3850    -3.4830 o          1 A1H      -0.472000
     18 C18         45.8810     1.8260    -0.9290 c3         1 A1H       0.222800
     19 C19         44.9770     0.7310    -1.4780 c3         1 A1H      -0.083400
     20 C20         43.6760     0.6050    -0.6880 c3         1 A1H      -0.078400
     21 C21         42.6580     1.6900    -1.0260 c3         1 A1H      -0.119400
     22 C22         41.4060     1.6450    -0.1450 c3         1 A1H       0.163800
     23 N23         40.6860     0.3860    -0.0860 n7         1 A1H      -0.871400
     24 C24         40.2050    -0.0990    -1.3610 c3         1 A1H       0.209100
     25 C25         39.3490    -1.3290    -1.1990 ca         1 A1H      -0.081300
     26 C26         39.4330    -2.3790    -2.1070 ca         1 A1H      -0.111000
     27 C27         38.6310    -3.5000    -1.9670 ca         1 A1H      -0.097000
     28 C28         37.7200    -3.6250    -0.9200 cp         1 A1H      -0.025000
     29 C29         36.8990    -4.8500    -0.8070 cp         1 A1H      -0.041000
     30 C30         37.5220    -6.0940    -0.7260 ca         1 A1H      -0.089500
     31 C31         36.7710    -7.2590    -0.6560 ca         1 A1H      -0.113500
     32 C32         35.3850    -7.1950    -0.6720 ca         1 A1H      -0.103000
     33 C33         34.7550    -5.9590    -0.7600 ca         1 A1H      -0.113500
     34 C34         35.5060    -4.7950    -0.8260 ca         1 A1H      -0.089500
     35 C35         37.6580    -2.5660    -0.0130 ca         1 A1H       0.127000
     36 CL36        36.5990    -2.6560     1.3610 cl         1 A1H      -0.201000
     37 C37         38.4520    -1.4390    -0.1420 ca         1 A1H      -0.085000
     38 O38         48.3880     3.6180    -3.2040 o          1 A1H      -0.535000
     39 H1          45.5750     5.8010    -1.4380 ha         1 A1H       0.148000
     40 H2          43.4410     6.5880    -2.3990 ha         1 A1H       0.140000
     41 H3          41.1660     4.6870    -6.1950 h5         1 A1H       0.063800
     42 H4          45.8420     2.7010    -4.4160 ha         1 A1H       0.150000
     43 H5          47.8000     0.2700    -1.3310 h1         1 A1H       0.082700
     44 H6          48.9950     1.5360    -1.3210 h1         1 A1H       0.082700
     45 H7          46.9440     0.3860    -6.0060 h1         1 A1H       0.050700
     46 H8          48.6190     0.9680    -5.9080 h1         1 A1H       0.050700
     47 H9          48.2340    -0.7100    -5.4670 h1         1 A1H       0.050700
     48 H10         46.2520     1.5600     0.0660 h1         1 A1H       0.051700
     49 H11         45.3060     2.7450    -0.8010 h1         1 A1H       0.051700
     50 H12         45.5110    -0.2220    -1.4650 hc         1 A1H       0.051700
     51 H13         44.7520     0.9480    -2.5260 hc         1 A1H       0.051700
     52 H14         43.2420    -0.3760    -0.8940 hc         1 A1H       0.042200
     53 H15         43.8920     0.6190     0.3870 hc         1 A1H       0.042200
     54 H16         43.1030     2.6830    -0.9130 hc         1 A1H       0.044700
     55 H17         42.3860     1.6070    -2.0840 hc         1 A1H       0.044700
     56 H18         41.6870     1.9040     0.8790 h1         1 A1H       0.054700
     57 H19         40.7080     2.4190    -0.4800 h1         1 A1H       0.054700
     58 H20         41.2590    -0.3240     0.3540 hn         1 A1H       0.416000
     59 H22         39.6030     0.6970    -1.8160 h1         1 A1H       0.038200
     60 H23         41.0000    -0.3230    -2.0870 h1         1 A1H       0.038200
     61 H24         40.1320    -2.3250    -2.9320 ha         1 A1H       0.114000
     62 H25         38.7090    -4.3030    -2.6890 ha         1 A1H       0.120000
     63 H26         38.6040    -6.1500    -0.7090 ha         1 A1H       0.116500
     64 H27         37.2700    -8.2170    -0.5880 ha         1 A1H       0.113500
     65 H28         34.7970    -8.1020    -0.6180 ha         1 A1H       0.113000
     66 H29         33.6740    -5.9010    -0.7830 ha         1 A1H       0.113500
     67 H30         35.0040    -3.8390    -0.9090 ha         1 A1H       0.116500
     68 H31         38.3850    -0.6470     0.5920 ha         1 A1H       0.146000
@<TRIPOS>BOND
     1     1     2 2   
     2     2     3 1   
     3     2    12 1   
     4     2    38 2   
     5     3     4 ar  
     6     3    11 ar  
     7     4     5 ar  
     8     4    39 1   
     9     5     6 ar  
    10     5    40 1   
    11     6     7 ar  
    12     6    10 1   
    13     7     8 1   
    14     7    11 ar  
    15     8     9 1   
    16     9    10 2   
    17     9    41 1   
    18    11    42 1   
    19    12    13 1   
    20    12    18 1   
    21    13    14 1   
    22    13    43 1   
    23    13    44 1   
    24    14    15 1   
    25    14    17 2   
    26    15    16 1   
    27    16    45 1   
    28    16    46 1   
    29    16    47 1   
    30    18    19 1   
    31    18    48 1   
    32    18    49 1   
    33    19    20 1   
    34    19    50 1   
    35    19    51 1   
    36    20    21 1   
    37    20    52 1   
    38    20    53 1   
    39    21    22 1   
    40    21    54 1   
    41    21    55 1   
    42    22    23 1   
    43    22    56 1   
    44    22    57 1   
    45    23    24 1   
    46    23    58 1   
    47    24    25 1   
    48    24    59 1   
    49    24    60 1   
    50    25    26 ar  
    51    25    37 ar  
    52    26    27 ar  
    53    26    61 1   
    54    27    28 ar  
    55    27    62 1   
    56    28    29 1   
    57    28    35 ar  
    58    29    30 ar  
    59    29    34 ar  
    60    30    31 ar  
    61    30    63 1   
    62    31    32 ar  
    63    31    64 1   
    64    32    33 ar  
    65    32    65 1   
    66    33    34 ar  
    67    33    66 1   
    68    34    67 1   
    69    35    36 1   
    70    35    37 ar  
    71    37    68 1   
@<TRIPOS>SUBSTRUCTURE
     1 A1H         1 TEMP              0 ****  ****    0 ROOT
