@<TRIPOS>MOLECULE
A1H
   80    83     1     0     0
SMALL
abcg2


@<TRIPOS>ATOM
      1 CBK          5.3030   -14.0270   -15.4790 c3         1 A1H       0.144900
      2 OBJ          5.7600   -15.2630   -15.9870 os         1 A1H      -0.322600
      3 CAD          6.0100   -16.2620   -15.1240 ca         1 A1H       0.155100
      4 CAE          5.8390   -16.1700   -13.7440 ca         1 A1H      -0.220500
      5 CAC          6.4640   -17.4540   -15.6980 ca         1 A1H       0.023100
      6 OBH          6.5910   -17.5600   -17.0480 os         1 A1H      -0.329100
      7 CBI          7.8580   -17.1630   -17.5530 c3         1 A1H       0.144900
      8 CAB          6.7710   -18.5420   -14.8770 ca         1 A1H       0.155100
      9 OBL          7.2160   -19.6420   -15.5100 os         1 A1H      -0.322600
     10 CBM          7.5560   -20.7720   -14.7330 c3         1 A1H       0.144900
     11 CAA          6.6000   -18.4430   -13.4970 ca         1 A1H      -0.220500
     12 CAF          6.1270   -17.2640   -12.9350 ca         1 A1H      -0.009300
     13 CAG          5.8700   -17.1980   -11.4420 c3         1 A1H      -0.087400
     14 CAJ          4.3690   -17.1900   -11.0980 c6         1 A1H      -0.045700
     15 CAK          4.1610   -17.3290    -9.5870 c6         1 A1H      -0.073400
     16 CAL          2.6820   -17.3590    -9.2130 c6         1 A1H      -0.072400
     17 CAM          1.9470   -18.4740    -9.9460 c6         1 A1H      -0.075400
     18 CAN          2.1480   -18.3500   -11.4510 c6         1 A1H      -0.072400
     19 CAO          3.6280   -18.3180   -11.8190 c6         1 A1H      -0.073400
     20 CAH          6.5820   -15.9720   -10.8710 c          1 A1H       0.622100
     21 OAP          5.9730   -14.9230   -10.7090 o          1 A1H      -0.606100
     22 N            7.9020   -16.0760   -10.5780 n          1 A1H      -0.395800
     23 CAU          8.7550   -17.2210   -10.8630 c6         1 A1H       0.099000
     24 CAT          9.5730   -17.6100    -9.6410 c6         1 A1H      -0.093400
     25 CAS         10.3950   -16.4280    -9.1470 c6         1 A1H      -0.076400
     26 CB           9.4920   -15.2260    -8.9070 c6         1 A1H      -0.072400
     27 CA           8.6190   -14.8980   -10.1150 c6         1 A1H       0.044700
     28 C            9.4030   -14.2590   -11.2580 c          1 A1H       0.579100
     29 O           10.4950   -13.7630   -11.1480 o          1 A1H      -0.491000
     30 OAX          8.7040   -14.2770   -12.3820 os         1 A1H      -0.434100
     31 CAY          9.3360   -13.8310   -13.5930 c3         1 A1H       0.254900
     32 CAZ         10.2230   -14.8870   -14.1420 cc         1 A1H      -0.263300
     33 CBD         11.5880   -14.8630   -14.3160 cd         1 A1H      -0.111000
     34 CBA          9.8490   -16.1700   -14.5830 cc         1 A1H       0.261900
     35 NBB         10.8940   -16.8620   -14.9920 nd         1 A1H      -0.543800
     36 NBC         11.9410   -16.0570   -14.8190 na         1 A1H       0.132800
     37 CBE         13.2520   -16.4640   -15.2690 c3         1 A1H       0.084600
     38 CBF         13.4420   -16.2560   -16.7570 c3         1 A1H       0.141600
     39 OBG         13.3380   -14.8820   -17.0350 oh         1 A1H      -0.661000
     40 HCD          5.1750   -13.3710   -16.3360 h1         1 A1H       0.042367
     41 HCE          4.3440   -14.1250   -14.9640 h1         1 A1H       0.042367
     42 HBK          6.0250   -13.5740   -14.7940 h1         1 A1H       0.042367
     43 HAE          5.4720   -15.2580   -13.2950 ha         1 A1H       0.129000
     44 HCC          7.8330   -17.3070   -18.6310 h1         1 A1H       0.035033
     45 HBI          8.0680   -16.1110   -17.3450 h1         1 A1H       0.035033
     46 HCB          8.6690   -17.7680   -17.1390 h1         1 A1H       0.035033
     47 HBM          7.9030   -21.5310   -15.4290 h1         1 A1H       0.042367
     48 HCF          8.3580   -20.5540   -14.0220 h1         1 A1H       0.042367
     49 HCG          6.6960   -21.1650   -14.1840 h1         1 A1H       0.042367
     50 HAA          6.8120   -19.2840   -12.8500 ha         1 A1H       0.129000
     51 HAG          6.2720   -18.1090   -10.9910 hc         1 A1H       0.062700
     52 HAJ          3.9340   -16.2380   -11.4240 hc         1 A1H       0.072700
     53 HAL          4.6370   -18.2590    -9.2520 hc         1 A1H       0.040700
     54 HAK          4.6550   -16.5160    -9.0510 hc         1 A1H       0.040700
     55 HAN          2.2280   -16.3960    -9.4700 hc         1 A1H       0.040200
     56 HAM          2.5750   -17.4740    -8.1320 hc         1 A1H       0.040200
     57 HAP          0.8820   -18.4560    -9.7000 hc         1 A1H       0.036700
     58 HAO          2.3290   -19.4440    -9.6070 hc         1 A1H       0.036700
     59 HAR          1.6680   -17.4310   -11.8040 hc         1 A1H       0.040200
     60 HAQ          1.6560   -19.1760   -11.9710 hc         1 A1H       0.040200
     61 HAS          4.0870   -19.2780   -11.5520 hc         1 A1H       0.040700
     62 HAT          3.7330   -18.2150   -12.9000 hc         1 A1H       0.040700
     63 HB7          8.1620   -18.0640   -11.1970 h1         1 A1H       0.053700
     64 HAU          9.4280   -16.9770   -11.6940 h1         1 A1H       0.053700
     65 HB5          8.9010   -17.9590    -8.8520 hc         1 A1H       0.047700
     66 HB6         10.2200   -18.4490    -9.9050 hc         1 A1H       0.047700
     67 HB3         10.9230   -16.6850    -8.2270 hc         1 A1H       0.050700
     68 HB4         11.1610   -16.1830    -9.8890 hc         1 A1H       0.050700
     69 HB2         10.0690   -14.3460    -8.6250 hc         1 A1H       0.059200
     70 HB1          8.8200   -15.4390    -8.0710 hc         1 A1H       0.059200
     71 HA           7.8760   -14.1550    -9.8140 h1         1 A1H       0.108700
     72 HB8          9.8770   -12.8980   -13.4310 h1         1 A1H       0.064200
     73 HAY          8.5050   -13.6240   -14.2660 h1         1 A1H       0.064200
     74 HBD         12.3150   -14.0910   -14.1140 h4         1 A1H       0.164000
     75 HBA          8.8600   -16.6050   -14.5990 h4         1 A1H       0.045100
     76 HB9         13.3880   -17.5170   -15.0260 h1         1 A1H       0.072200
     77 HBE         13.9930   -15.8950   -14.7070 h1         1 A1H       0.072200
     78 HCA         12.6920   -16.8440   -17.3000 h1         1 A1H       0.036200
     79 HBF         14.4260   -16.6620   -17.0260 h1         1 A1H       0.036200
     80 HBG         13.3290   -14.7630   -17.9880 ho         1 A1H       0.451000
@<TRIPOS>BOND
     1     1     2 1   
     2     1    40 1   
     3     1    41 1   
     4     1    42 1   
     5     2     3 1   
     6     3     4 ar  
     7     3     5 ar  
     8     4    12 ar  
     9     4    43 1   
    10     5     6 1   
    11     5     8 ar  
    12     6     7 1   
    13     7    44 1   
    14     7    45 1   
    15     7    46 1   
    16     8     9 1   
    17     8    11 ar  
    18     9    10 1   
    19    10    47 1   
    20    10    48 1   
    21    10    49 1   
    22    11    12 ar  
    23    11    50 1   
    24    12    13 1   
    25    13    14 1   
    26    13    20 1   
    27    13    51 1   
    28    14    15 1   
    29    14    19 1   
    30    14    52 1   
    31    15    16 1   
    32    15    53 1   
    33    15    54 1   
    34    16    17 1   
    35    16    55 1   
    36    16    56 1   
    37    17    18 1   
    38    17    57 1   
    39    17    58 1   
    40    18    19 1   
    41    18    59 1   
    42    18    60 1   
    43    19    61 1   
    44    19    62 1   
    45    20    21 2   
    46    20    22 1   
    47    22    23 1   
    48    22    27 1   
    49    23    24 1   
    50    23    63 1   
    51    23    64 1   
    52    24    25 1   
    53    24    65 1   
    54    24    66 1   
    55    25    26 1   
    56    25    67 1   
    57    25    68 1   
    58    26    27 1   
    59    26    69 1   
    60    26    70 1   
    61    27    28 1   
    62    27    71 1   
    63    28    29 2   
    64    28    30 1   
    65    30    31 1   
    66    31    32 1   
    67    31    72 1   
    68    31    73 1   
    69    32    33 2   
    70    32    34 1   
    71    33    36 1   
    72    33    74 1   
    73    34    35 2   
    74    34    75 1   
    75    35    36 1   
    76    36    37 1   
    77    37    38 1   
    78    37    76 1   
    79    37    77 1   
    80    38    39 1   
    81    38    78 1   
    82    38    79 1   
    83    39    80 1   
@<TRIPOS>SUBSTRUCTURE
     1 A1H         1 TEMP              0 ****  ****    0 ROOT
