@<TRIPOS>MOLECULE
A1H
   75    77     1     0     0
SMALL
No Charge or Current Charge


@<TRIPOS>ATOM
      1 C14        -30.5600    17.7010    -4.9060 c5         1 A1H      -0.036500
      2 C6         -32.0490    17.6560    -5.2880 c2         1 A1H      -0.075400
      3 C9         -32.5330    16.2460    -5.6660 c6         1 A1H      -0.043200
      4 C11        -31.6140    15.5420    -6.7060 c6         1 A1H      -0.070400
      5 C12        -30.1030    15.6700    -6.3560 c6         1 A1H      -0.064400
      6 C5         -35.0530    20.0110    -5.6500 ce         1 A1H      -0.089200
      7 C10        -34.4520    21.3580    -5.6060 ce         1 A1H      -0.090200
      8 C19        -33.4170    21.7150    -6.4050 c2         1 A1H      -0.280000
      9 C21        -25.7950    16.8650    -5.1150 c3         1 A1H      -0.090100
     10 C23        -25.3150    17.2740    -8.1470 c3         1 A1H      -0.076400
     11 C25        -23.8140    17.6520   -10.2910 c3         1 A1H       0.186000
     12 C17        -28.2990    17.3430    -5.4050 c5         1 A1H      -0.054700
     13 C7         -32.8820    18.7520    -5.2400 cf         1 A1H      -0.195000
     14 C28        -34.3380    18.8480    -5.5340 cf         1 A1H      -0.125000
     15 C4         -36.5730    20.0500    -5.9560 c6         1 A1H       0.226500
     16 C3         -37.3270    21.0270    -4.9910 c6         1 A1H       0.142300
     17 C2         -36.6490    22.4180    -4.9480 c6         1 A1H      -0.146400
     18 C1         -35.1450    22.3120    -4.6080 c6         1 A1H       0.214500
     19 C16        -28.3820    18.8200    -4.8660 c5         1 A1H      -0.073400
     20 C20        -26.9680    16.9240    -6.1330 c3         1 A1H      -0.045700
     21 C22        -26.5690    17.7710    -7.3840 c3         1 A1H      -0.074400
     22 C24        -25.0790    18.0480    -9.4720 c3         1 A1H      -0.105400
     23 C26        -23.8110    16.1560   -10.6880 c3         1 A1H      -0.101100
     24 C15        -29.9160    19.1020    -4.6770 c5         1 A1H      -0.070400
     25 C27        -23.7030    18.5350   -11.5560 c3         1 A1H      -0.101100
     26 C13        -29.7040    17.1530    -6.0990 c5         1 A1H      -0.041000
     27 O4         -37.1800    18.7560    -5.8480 oh         1 A1H      -0.641000
     28 O2         -37.4010    20.4760    -3.6640 oh         1 A1H      -0.636000
     29 O1         -34.5630    23.6210    -4.6260 oh         1 A1H      -0.656000
     30 O3         -22.6550    17.9010    -9.4960 oh         1 A1H      -0.662000
     31 H141       -30.4430    17.0900    -4.0000 hc         1 A1H       0.052700
     32 H91        -33.5550    16.2550    -6.0600 hc         1 A1H       0.048700
     33 H92        -32.5680    15.6360    -4.7530 hc         1 A1H       0.048700
     34 H111       -31.8040    15.9630    -7.7030 hc         1 A1H       0.040200
     35 H112       -31.8860    14.4800    -6.7770 hc         1 A1H       0.040200
     36 H121       -29.8910    15.0680    -5.4620 hc         1 A1H       0.039200
     37 H122       -29.4930    15.2420    -7.1640 hc         1 A1H       0.039200
     38 H181       -29.3800    18.9210    -7.4340 hc         1 A1H       0.034033
     39 H182       -29.5370    17.3920    -8.3010 hc         1 A1H       0.034033
     40 H183       -30.9560    18.1760    -7.6370 hc         1 A1H       0.034033
     41 H191       -32.9810    22.7130    -6.3870 ha         1 A1H       0.173000
     42 H192       -32.9770    21.0100    -7.1110 ha         1 A1H       0.173000
     43 H211       -26.0780    16.3010    -4.2180 hc         1 A1H       0.032033
     44 H212       -24.9200    16.3610    -5.5400 hc         1 A1H       0.032033
     45 H213       -25.4970    17.8730    -4.8030 hc         1 A1H       0.032033
     46 H231       -25.4370    16.2050    -8.3590 hc         1 A1H       0.035700
     47 H232       -24.4330    17.3840    -7.5070 hc         1 A1H       0.035700
     48 H171       -28.2980    16.6830    -4.5280 hc         1 A1H       0.043700
     49 H71        -32.4440    19.6970    -4.9270 ha         1 A1H       0.177000
     50 H61        -34.8750    17.9060    -5.6420 ha         1 A1H       0.192000
     51 H41        -36.6950    20.4260    -6.9820 h1         1 A1H       0.037700
     52 H31        -38.3480    21.1630    -5.3790 h1         1 A1H       0.024700
     53 H21        -37.1610    23.0630    -4.2210 hc         1 A1H       0.049700
     54 H22        -36.7670    22.9020    -5.9270 hc         1 A1H       0.049700
     55 H11        -35.0410    21.8790    -3.6010 h1         1 A1H       0.050700
     56 H161       -27.8330    18.9260    -3.9240 hc         1 A1H       0.041700
     57 H162       -27.9460    19.5460    -5.5610 hc         1 A1H       0.041700
     58 H201       -27.1140    15.8960    -6.4870 hc         1 A1H       0.045700
     59 H221       -26.4080    18.8140    -7.0900 hc         1 A1H       0.042200
     60 H222       -27.3890    17.7700    -8.1030 hc         1 A1H       0.042200
     61 H241       -25.0270    19.1190    -9.2420 hc         1 A1H       0.047700
     62 H242       -25.9610    17.9170   -10.1120 hc         1 A1H       0.047700
     63 H261       -23.7610    15.5040    -9.8080 hc         1 A1H       0.040867
     64 H262       -24.7180    15.9030   -11.2500 hc         1 A1H       0.040867
     65 H263       -22.9460    15.9220   -11.3210 hc         1 A1H       0.040867
     66 H151       -30.2570    19.8450    -5.4070 hc         1 A1H       0.045200
     67 H152       -30.1440    19.5020    -3.6820 hc         1 A1H       0.045200
     68 H271       -23.6670    19.5990   -11.2900 hc         1 A1H       0.040867
     69 H272       -22.7940    18.2980   -12.1220 hc         1 A1H       0.040867
     70 H273       -24.5650    18.3790   -12.2150 hc         1 A1H       0.040867
     71 H39        -37.4110    18.6920    -4.8940 ho         1 A1H       0.443000
     72 HO2        -37.9580    21.0860    -3.1330 ho         1 A1H       0.435000
     73 HO1        -35.0430    24.1460    -3.9500 ho         1 A1H       0.443000
     74 HO3        -22.7750    17.4020    -8.6610 ho         1 A1H       0.439000
     75 C18        -29.9010    17.9580    -7.4360 c3         1 A1H      -0.077100
@<TRIPOS>BOND
     1     1     2 1   
     2     1    24 1   
     3     1    26 1   
     4     1    31 1   
     5     2     3 1   
     6     2    13 2   
     7     3     4 1   
     8     3    32 1   
     9     3    33 1   
    10     4     5 1   
    11     4    34 1   
    12     4    35 1   
    13     5    26 1   
    14     5    36 1   
    15     5    37 1   
    16     6     7 1   
    17     6    14 2   
    18     6    15 1   
    19     7     8 2   
    20     7    18 1   
    21     8    41 1   
    22     8    42 1   
    23     9    20 1   
    24     9    43 1   
    25     9    44 1   
    26     9    45 1   
    27    10    21 1   
    28    10    22 1   
    29    10    46 1   
    30    10    47 1   
    31    11    22 1   
    32    11    23 1   
    33    11    25 1   
    34    11    30 1   
    35    12    19 1   
    36    12    20 1   
    37    12    26 1   
    38    12    48 1   
    39    13    14 1   
    40    13    49 1   
    41    14    50 1   
    42    15    16 1   
    43    15    27 1   
    44    15    51 1   
    45    16    17 1   
    46    16    28 1   
    47    16    52 1   
    48    17    18 1   
    49    17    53 1   
    50    17    54 1   
    51    18    29 1   
    52    18    55 1   
    53    19    24 1   
    54    19    56 1   
    55    19    57 1   
    56    20    21 1   
    57    20    58 1   
    58    21    59 1   
    59    21    60 1   
    60    22    61 1   
    61    22    62 1   
    62    23    63 1   
    63    23    64 1   
    64    23    65 1   
    65    24    66 1   
    66    24    67 1   
    67    25    68 1   
    68    25    69 1   
    69    25    70 1   
    70    26    75 1   
    71    27    71 1   
    72    28    72 1   
    73    29    73 1   
    74    30    74 1   
    75    38    75 1   
    76    39    75 1   
    77    40    75 1   
@<TRIPOS>SUBSTRUCTURE
     1 A1H         1 TEMP              0 ****  ****    0 ROOT
