@<TRIPOS>MOLECULE
A1H
   55    59     1     0     0
SMALL
abcg2


@<TRIPOS>ATOM
      1 C1        -134.0870    -6.0610   156.7580 ca         1 A1H      -0.018300
      2 C2        -134.8890    -6.8130   157.6140 ca         1 A1H      -0.131000
      3 C3        -135.7020    -7.8300   157.1500 ca         1 A1H      -0.047000
      4 C7        -133.3090    -5.6120   154.4130 cc         1 A1H       0.305500
      5 C8        -131.6020    -4.7220   153.5080 cd         1 A1H       0.396400
      6 C10       -133.7330    -5.1030   153.2040 cd         1 A1H      -0.144000
      7 C11       -135.0610    -5.0990   152.5910 ca         1 A1H      -0.018000
      8 C12       -135.2640    -5.5110   151.2750 ca         1 A1H      -0.099000
      9 C13       -136.5380    -5.5330   150.7290 ca         1 A1H      -0.131000
     10 C14       -137.6320    -5.1650   151.4980 ca         1 A1H      -0.071000
     11 C15       -139.9710    -4.6010   151.6270 c          1 A1H       0.543000
     12 C16       -139.5790    -3.8380   152.8760 c6         1 A1H       0.072600
     13 C20       -136.8720   -10.8890   153.4840 ca         1 A1H      -0.016000
     14 C21       -136.1820   -11.4070   152.3830 ca         1 A1H      -0.152000
     15 C22       -136.7380   -12.4060   151.6050 ca         1 A1H      -0.084000
     16 C24       -138.6830   -12.3980   152.9950 ca         1 A1H      -0.084000
     17 O2        -137.6350    -9.5140   155.9520 o          1 A1H      -0.581100
     18 N3        -136.2270    -9.8760   154.2010 ns         1 A1H      -0.144000
     19 C25       -138.1370   -11.3950   153.7880 ca         1 A1H      -0.152000
     20 C23       -137.9970   -12.9120   151.9050 ca         1 A1H      -0.140000
     21 C4        -135.7140    -8.1460   155.7940 ca         1 A1H      -0.165600
     22 C5        -134.9140    -7.4070   154.9310 ca         1 A1H      -0.071000
     23 C6        -134.1060    -6.3670   155.3890 ca         1 A1H      -0.117500
     24 C         -133.2600    -4.9400   157.3140 c3         1 A1H      -0.050800
     25 N1        -132.6180    -4.5370   152.6410 na         1 A1H      -0.155500
     26 N         -131.9770    -5.3630   154.5830 nc         1 A1H      -0.660000
     27 C18       -136.1640    -4.7080   153.3540 ca         1 A1H      -0.078000
     28 C17       -137.4350    -4.7560   152.8170 ca         1 A1H       0.081100
     29 O1        -138.5070    -4.4360   153.5790 os         1 A1H      -0.319100
     30 O         -141.1060    -4.6050   151.1970 o          1 A1H      -0.523000
     31 N2        -138.9370    -5.2250   151.0170 ns         1 A1H      -0.142000
     32 H3        -134.8870    -6.5820   158.6730 ha         1 A1H       0.118000
     33 H4        -136.3220    -8.3830   157.8440 ha         1 A1H       0.135000
     34 H6        -130.6050    -4.3600   153.3020 h5         1 A1H       0.057100
     35 H7        -133.3750    -3.1510   151.2720 h1         1 A1H       0.056367
     36 H9        -131.6160    -3.2240   151.3960 h1         1 A1H       0.056367
     37 H8        -132.4890    -4.4990   150.5400 h1         1 A1H       0.056367
     38 H10       -134.4320    -5.8430   150.6690 ha         1 A1H       0.118000
     39 H11       -136.6860    -5.8580   149.7070 ha         1 A1H       0.122000
     40 H14       -139.3300    -2.8090   152.5850 h1         1 A1H       0.086200
     41 H13       -140.4290    -3.8010   153.5550 h1         1 A1H       0.086200
     42 H17       -135.2000   -11.0200   152.1370 ha         1 A1H       0.127000
     43 H18       -136.1830   -12.7890   150.7580 ha         1 A1H       0.112000
     44 H20       -139.6650   -12.7790   153.2440 ha         1 A1H       0.112000
     45 H16       -135.3170    -9.6320   153.8400 hn         1 A1H       0.154000
     46 H21       -138.6980   -11.0220   154.6280 ha         1 A1H       0.127000
     47 H19       -138.4350   -13.6930   151.2980 ha         1 A1H       0.114000
     48 H5        -134.9180    -7.6110   153.8670 ha         1 A1H       0.114000
     49 H2        -132.1970    -5.1810   157.2960 hc         1 A1H       0.050033
     50 H1        -133.3840    -4.0250   156.7340 hc         1 A1H       0.050033
     51 H         -133.5400    -4.7310   158.3450 hc         1 A1H       0.050033
     52 H15       -136.0340    -4.3750   154.3760 ha         1 A1H       0.145000
     53 H12       -139.1130    -5.6950   150.1390 hn         1 A1H       0.167000
     54 C9        -132.5250    -3.8180   151.3890 c3         1 A1H       0.057900
     55 C19       -136.6230    -9.2360   155.3310 c          1 A1H       0.625700
@<TRIPOS>BOND
     1     1     2 ar  
     2     1    23 ar  
     3     1    24 1   
     4     2     3 ar  
     5     2    32 1   
     6     3    21 ar  
     7     3    33 1   
     8     4     6 2   
     9     4    23 1   
    10     4    26 1   
    11     5    25 1   
    12     5    26 2   
    13     5    34 1   
    14     6     7 1   
    15     6    25 1   
    16     7     8 ar  
    17     7    27 ar  
    18     8     9 ar  
    19     8    38 1   
    20     9    10 ar  
    21     9    39 1   
    22    10    28 ar  
    23    10    31 1   
    24    11    12 1   
    25    11    30 2   
    26    11    31 1   
    27    12    29 1   
    28    12    40 1   
    29    12    41 1   
    30    13    14 ar  
    31    13    18 1   
    32    13    19 ar  
    33    14    15 ar  
    34    14    42 1   
    35    15    20 ar  
    36    15    43 1   
    37    16    19 ar  
    38    16    20 ar  
    39    16    44 1   
    40    17    55 2   
    41    18    45 1   
    42    18    55 1   
    43    19    46 1   
    44    20    47 1   
    45    21    22 ar  
    46    21    55 1   
    47    22    23 ar  
    48    22    48 1   
    49    24    49 1   
    50    24    50 1   
    51    24    51 1   
    52    25    54 1   
    53    27    28 ar  
    54    27    52 1   
    55    28    29 1   
    56    31    53 1   
    57    35    54 1   
    58    36    54 1   
    59    37    54 1   
@<TRIPOS>SUBSTRUCTURE
     1 A1H         1 TEMP              0 ****  ****    0 ROOT
