@<TRIPOS>MOLECULE
A1H
   94    97     1     0     0
SMALL
abcg2


@<TRIPOS>ATOM
      1 C4          28.6260   -16.4340    -5.7480 c5         1 A1H      -0.035500
      2 C5          27.6290   -16.4060    -6.9370 c5         1 A1H      -0.035000
      3 C6          28.2220   -15.4700    -7.9960 c6         1 A1H      -0.063400
      4 C7          27.8610   -17.1140    -4.6270 c5         1 A1H      -0.072400
      5 C8          26.4110   -16.6450    -4.8410 c5         1 A1H      -0.075400
      6 C10         27.4070   -17.8080    -7.5100 c3         1 A1H      -0.078100
      7 C13         23.9290   -15.4130    -5.9780 cx         1 A1H      -0.135700
      8 C15         23.6190   -15.6540    -9.0590 c3         1 A1H      -0.068400
      9 C17         22.0940   -17.4280   -10.1890 c3         1 A1H       0.183000
     10 C21         23.2930   -16.1080    -4.8080 cx         1 A1H      -0.107700
     11 C22         23.1460   -15.3800    -3.4950 c3         1 A1H      -0.035400
     12 C24         20.7960   -16.1520    -2.5880 c3         1 A1H       0.186000
     13 C26         20.1900   -14.7680    -2.8130 c3         1 A1H      -0.122100
     14 C28         31.8740   -18.5340    -5.9160 ce         1 A1H      -0.155000
     15 C1          29.6370   -15.8840    -8.4040 c6         1 A1H      -0.071400
     16 C12         24.9720   -16.0590    -6.8710 c3         1 A1H      -0.013700
     17 C14         24.9170   -15.4480    -8.2780 c3         1 A1H      -0.069400
     18 C16         23.3510   -17.1230    -9.3700 c3         1 A1H      -0.062400
     19 C18         21.9800   -18.9400   -10.3810 c3         1 A1H      -0.121100
     20 C19         22.1280   -16.7440   -11.5560 c3         1 A1H      -0.121100
     21 C2          30.5870   -16.0440    -7.2120 c6         1 A1H      -0.041200
     22 C23         22.3160   -16.0830    -2.4210 c3         1 A1H      -0.056400
     23 C25         20.1940   -16.7650    -1.3210 c3         1 A1H      -0.122100
     24 C29         32.3620   -19.7150    -5.4980 cf         1 A1H      -0.073200
     25 C3          29.9850   -16.9160    -6.1450 c2         1 A1H      -0.079400
     26 C30         33.7690   -20.1520    -5.8010 c6         1 A1H      -0.029200
     27 C31         34.5100   -20.5720    -4.5370 c6         1 A1H       0.175300
     28 C32         33.7070   -21.6190    -3.7670 c6         1 A1H      -0.107400
     29 C33         32.2990   -21.1340    -3.4340 c6         1 A1H       0.213500
     30 C34         31.5990   -20.7010    -4.7050 cf         1 A1H      -0.117200
     31 C35         30.4350   -21.2070    -5.1090 c2         1 A1H      -0.303000
     32 C38         22.4710   -15.7750    -6.0060 cx         1 A1H      -0.104400
     33 C9          26.3540   -15.9080    -6.2050 c5         1 A1H      -0.051700
     34 O20         20.9910   -16.9520    -9.4270 oh         1 A1H      -0.659000
     35 O27         20.5260   -16.9970    -3.6980 oh         1 A1H      -0.651000
     36 O36         31.6350   -22.1570    -2.7380 oh         1 A1H      -0.658000
     37 O37         34.7340   -19.4070    -3.7680 oh         1 A1H      -0.656000
     38 H4          28.7500   -15.3790    -5.4540 hc         1 A1H       0.052700
     39 H6B         28.2470   -14.4520    -7.5900 hc         1 A1H       0.040200
     40 H6A         27.6020   -15.4300    -8.8920 hc         1 A1H       0.040200
     41 H7A         27.9250   -18.2020    -4.7090 hc         1 A1H       0.042700
     42 H7B         28.2530   -16.8510    -3.6440 hc         1 A1H       0.042700
     43 H8A         25.7370   -17.5030    -4.8480 hc         1 A1H       0.043200
     44 H8B         26.0710   -15.9970    -4.0330 hc         1 A1H       0.043200
     45 H10C        26.7680   -17.7690    -8.3950 hc         1 A1H       0.033367
     46 H10A        28.3430   -18.2840    -7.8060 hc         1 A1H       0.033367
     47 H10B        26.9220   -18.4770    -6.7980 hc         1 A1H       0.033367
     48 H13         24.1200   -14.3520    -5.8160 hc         1 A1H       0.065700
     49 H15B        22.7750   -15.2170    -8.5240 hc         1 A1H       0.046200
     50 H15A        23.7090   -15.0950    -9.9940 hc         1 A1H       0.046200
     51 H21         23.5410   -17.1610    -4.7030 hc         1 A1H       0.075700
     52 H22A        24.1480   -15.2410    -3.0730 hc         1 A1H       0.035200
     53 H22B        22.7660   -14.3690    -3.6730 hc         1 A1H       0.035200
     54 H26B        19.0990   -14.8280    -2.8540 hc         1 A1H       0.039033
     55 H26A        20.4470   -14.0870    -1.9990 hc         1 A1H       0.039033
     56 H26C        20.5320   -14.3210    -3.7470 hc         1 A1H       0.039033
     57 H28         32.5370   -17.9140    -6.5110 ha         1 A1H       0.171000
     58 H1B         30.0480   -15.1390    -9.0900 hc         1 A1H       0.039200
     59 H1A         29.6040   -16.8220    -8.9640 hc         1 A1H       0.039200
     60 H11         29.9960   -18.5530    -4.8610 ha         1 A1H       0.175000
     61 H12         24.7520   -17.1320    -6.9420 hc         1 A1H       0.049700
     62 H14B        25.1230   -14.3750    -8.1990 hc         1 A1H       0.036200
     63 H14A        25.7220   -15.8620    -8.8870 hc         1 A1H       0.036200
     64 H16A        24.2120   -17.5330    -9.9090 hc         1 A1H       0.043200
     65 H16B        23.2860   -17.6920    -8.4380 hc         1 A1H       0.043200
     66 H18C        21.0700   -19.1990   -10.9300 hc         1 A1H       0.039533
     67 H18B        22.8270   -19.3300   -10.9470 hc         1 A1H       0.039533
     68 H18A        21.9520   -19.4570    -9.4200 hc         1 A1H       0.039533
     69 H19C        21.2470   -17.0130   -12.1440 hc         1 A1H       0.039533
     70 H19A        22.1480   -15.6580   -11.4660 hc         1 A1H       0.039533
     71 H19B        23.0070   -17.0520   -12.1240 hc         1 A1H       0.039533
     72 H2A         31.5510   -16.4150    -7.5600 hc         1 A1H       0.045700
     73 H2B         30.7730   -15.0520    -6.7810 hc         1 A1H       0.045700
     74 H23A        22.6930   -17.1040    -2.2910 hc         1 A1H       0.042700
     75 H23B        22.5080   -15.5770    -1.4700 hc         1 A1H       0.042700
     76 H25B        19.1110   -16.8760    -1.4170 hc         1 A1H       0.039033
     77 H25C        20.6190   -17.7510    -1.1230 hc         1 A1H       0.039033
     78 H25A        20.3830   -16.1370    -0.4490 hc         1 A1H       0.039033
     79 H30A        33.7450   -21.0210    -6.4680 hc         1 A1H       0.056200
     80 H30B        34.3210   -19.3650    -6.3200 hc         1 A1H       0.056200
     81 H31         35.4660   -21.0250    -4.8320 h1         1 A1H       0.032700
     82 H33         32.3910   -20.2380    -2.8010 h1         1 A1H       0.046700
     83 H35A        29.9030   -21.9590    -4.5420 ha         1 A1H       0.168500
     84 H35B        29.9780   -20.8870    -6.0370 ha         1 A1H       0.168500
     85 H38B        21.7470   -14.9720    -5.9230 hc         1 A1H       0.074200
     86 H38A        22.1460   -16.5890    -6.6440 hc         1 A1H       0.074200
     87 H9          26.5060   -14.8350    -6.0220 hc         1 A1H       0.042700
     88 H20         20.1840   -17.1370    -9.9190 ho         1 A1H       0.436000
     89 H27         19.5710   -17.0410    -3.8120 ho         1 A1H       0.436000
     90 H36         30.8180   -21.7980    -2.3760 ho         1 A1H       0.446000
     91 H37         35.2000   -19.6620    -2.9650 ho         1 A1H       0.439000
     92 H1          33.6420   -22.5290    -4.3710 hc         1 A1H       0.056700
     93 H2          34.2330   -21.8870    -2.8450 hc         1 A1H       0.056700
     94 C11         30.5580   -18.0060    -5.6090 ce         1 A1H      -0.191000
@<TRIPOS>BOND
     1     1     2 1   
     2     1     4 1   
     3     1    25 1   
     4     1    38 1   
     5     2     3 1   
     6     2     6 1   
     7     2    33 1   
     8     3    15 1   
     9     3    39 1   
    10     3    40 1   
    11     4     5 1   
    12     4    41 1   
    13     4    42 1   
    14     5    33 1   
    15     5    43 1   
    16     5    44 1   
    17     6    45 1   
    18     6    46 1   
    19     6    47 1   
    20     7    10 1   
    21     7    16 1   
    22     7    32 1   
    23     7    48 1   
    24     8    17 1   
    25     8    18 1   
    26     8    49 1   
    27     8    50 1   
    28     9    18 1   
    29     9    19 1   
    30     9    20 1   
    31     9    34 1   
    32    10    11 1   
    33    10    32 1   
    34    10    51 1   
    35    11    22 1   
    36    11    52 1   
    37    11    53 1   
    38    12    13 1   
    39    12    22 1   
    40    12    23 1   
    41    12    35 1   
    42    13    54 1   
    43    13    55 1   
    44    13    56 1   
    45    14    24 2   
    46    14    57 1   
    47    14    94 1   
    48    15    21 1   
    49    15    58 1   
    50    15    59 1   
    51    16    17 1   
    52    16    33 1   
    53    16    61 1   
    54    17    62 1   
    55    17    63 1   
    56    18    64 1   
    57    18    65 1   
    58    19    66 1   
    59    19    67 1   
    60    19    68 1   
    61    20    69 1   
    62    20    70 1   
    63    20    71 1   
    64    21    25 1   
    65    21    72 1   
    66    21    73 1   
    67    22    74 1   
    68    22    75 1   
    69    23    76 1   
    70    23    77 1   
    71    23    78 1   
    72    24    26 1   
    73    24    30 1   
    74    25    94 2   
    75    26    27 1   
    76    26    79 1   
    77    26    80 1   
    78    27    28 1   
    79    27    37 1   
    80    27    81 1   
    81    28    29 1   
    82    28    92 1   
    83    28    93 1   
    84    29    30 1   
    85    29    36 1   
    86    29    82 1   
    87    30    31 2   
    88    31    83 1   
    89    31    84 1   
    90    32    85 1   
    91    32    86 1   
    92    33    87 1   
    93    34    88 1   
    94    35    89 1   
    95    36    90 1   
    96    37    91 1   
    97    60    94 1   
@<TRIPOS>SUBSTRUCTURE
     1 A1H         1 TEMP              0 ****  ****    0 ROOT
