@<TRIPOS>MOLECULE
A1H
   82    85     1     0     0
SMALL
abcg2


@<TRIPOS>ATOM
      1 CBG         15.0460   -17.8310   -14.4260 c3         1 A1H      -0.090100
      2 CBF         13.6380   -17.3510   -14.1080 c3         1 A1H      -0.095400
      3 CBE         13.1590   -16.3350   -15.1340 c3         1 A1H       0.087600
      4 NBC         11.8190   -15.8570   -14.8620 na         1 A1H       0.127800
      5 CBD         11.4600   -14.6560   -14.3780 cc         1 A1H      -0.132000
      6 NBB         10.7760   -16.6670   -15.0300 nc         1 A1H      -0.533800
      7 CBA          9.7250   -15.9640   -14.6600 cd         1 A1H       0.256900
      8 CAZ         10.0900   -14.6740   -14.2380 cd         1 A1H      -0.258300
      9 CAY          9.1840   -13.6140   -13.7270 c3         1 A1H       0.252900
     10 OAX          8.5860   -14.0250   -12.4860 os         1 A1H      -0.432100
     11 C            9.3080   -13.9440   -11.3800 c          1 A1H       0.581100
     12 O           10.3790   -13.4000   -11.3070 o          1 A1H      -0.492000
     13 CA           8.5780   -14.5920   -10.2060 c6         1 A1H       0.043700
     14 CB           9.4710   -14.7840    -8.9830 c6         1 A1H      -0.072400
     15 CAS         10.4810   -15.9090    -9.1640 c6         1 A1H      -0.076400
     16 CAT          9.7770   -17.1820    -9.6140 c6         1 A1H      -0.094400
     17 CAU          8.9320   -16.9220   -10.8510 c6         1 A1H       0.100000
     18 N            7.9740   -15.8510   -10.6150 n          1 A1H      -0.396800
     19 CAH          6.6430   -15.8940   -10.8700 c          1 A1H       0.622100
     20 OAP          5.9350   -14.9060   -10.7300 o          1 A1H      -0.605100
     21 CAG          6.0440   -17.2090   -11.3720 c3         1 A1H      -0.086400
     22 CAJ          4.5640   -17.3480   -10.9710 c6         1 A1H      -0.044700
     23 CAK          4.4200   -17.4560    -9.4500 c6         1 A1H      -0.073400
     24 CAL          2.9660   -17.6290    -9.0240 c6         1 A1H      -0.072900
     25 CAM          2.3300   -18.8390    -9.6970 c6         1 A1H      -0.075400
     26 CAN          2.4670   -18.7420   -11.2110 c6         1 A1H      -0.072900
     27 CAO          3.9240   -18.5700   -11.6310 c6         1 A1H      -0.073400
     28 CAF          6.2470   -17.2940   -12.8720 ca         1 A1H      -0.009300
     29 CAE          6.8720   -18.4080   -13.4160 ca         1 A1H      -0.221500
     30 CAA          5.7560   -16.2930   -13.7030 ca         1 A1H      -0.221500
     31 CAB          5.8710   -16.4190   -15.0860 ca         1 A1H       0.155100
     32 OBJ          5.4200   -15.5110   -15.9690 os         1 A1H      -0.322100
     33 CBK          4.8000   -14.3420   -15.4720 c3         1 A1H       0.144900
     34 CAC          6.4840   -17.5480   -15.6410 ca         1 A1H       0.023100
     35 OBH          6.5660   -17.6910   -16.9900 os         1 A1H      -0.328100
     36 CBI          7.7480   -17.1560   -17.5690 c3         1 A1H       0.143900
     37 CAD          6.9950   -18.5380   -14.7990 ca         1 A1H       0.155100
     38 OBL          7.5840   -19.5780   -15.4120 os         1 A1H      -0.322100
     39 CBM          8.1600   -20.5930   -14.6140 c3         1 A1H       0.144900
     40 HCC         15.3860   -18.5600   -13.6900 hc         1 A1H       0.037033
     41 HBG         15.0900   -18.3060   -15.4070 hc         1 A1H       0.037033
     42 HCB         15.7570   -17.0040   -14.4250 hc         1 A1H       0.037033
     43 HCA         13.6090   -16.8990   -13.1140 hc         1 A1H       0.056700
     44 HBF         12.9490   -18.1990   -14.0910 hc         1 A1H       0.056700
     45 HB9         13.1710   -16.7660   -16.1360 h1         1 A1H       0.061200
     46 HBE         13.8160   -15.4650   -15.1450 h1         1 A1H       0.061200
     47 HBD         12.1840   -13.8830   -14.1770 h4         1 A1H       0.160000
     48 HBA          8.7340   -16.3920   -14.7010 h4         1 A1H       0.047100
     49 HAY          9.7010   -12.6600   -13.6160 h1         1 A1H       0.065200
     50 HB8          8.3360   -13.4650   -14.3940 h1         1 A1H       0.065200
     51 HA           7.7690   -13.9070    -9.9400 h1         1 A1H       0.108700
     52 HB2          9.9650   -13.8440    -8.7410 hc         1 A1H       0.058700
     53 HB1          8.8160   -15.0170    -8.1390 hc         1 A1H       0.058700
     54 HB4         11.0160   -16.0790    -8.2290 hc         1 A1H       0.050700
     55 HB3         11.2320   -15.6280    -9.9070 hc         1 A1H       0.050700
     56 HB6          9.1350   -17.5620    -8.8150 hc         1 A1H       0.047700
     57 HB5         10.5020   -17.9650    -9.8430 hc         1 A1H       0.047700
     58 HB7          8.4210   -17.8310   -11.1470 h1         1 A1H       0.053200
     59 HAU          9.5800   -16.6530   -11.6950 h1         1 A1H       0.053200
     60 HAG          6.5620   -18.0560   -10.9160 hc         1 A1H       0.062700
     61 HAJ          4.0230   -16.4580   -11.3100 hc         1 A1H       0.072700
     62 HAL          5.0000   -18.3200    -9.1030 hc         1 A1H       0.041200
     63 HAK          4.8430   -16.5790    -8.9560 hc         1 A1H       0.041200
     64 HAN          2.4020   -16.7290    -9.2920 hc         1 A1H       0.040200
     65 HAM          2.9050   -17.7200    -7.9370 hc         1 A1H       0.040200
     66 HAP          1.2790   -18.9280    -9.4120 hc         1 A1H       0.037200
     67 HAO          2.8290   -19.7500    -9.3490 hc         1 A1H       0.037200
     68 HAR          1.8850   -17.8880   -11.5740 hc         1 A1H       0.040200
     69 HAQ          2.0470   -19.6290   -11.6910 hc         1 A1H       0.040200
     70 HAS          4.4890   -19.4680   -11.3510 hc         1 A1H       0.041200
     71 HAT          3.9830   -18.4930   -12.7180 hc         1 A1H       0.041200
     72 HAE          7.2440   -19.1790   -12.7540 ha         1 A1H       0.128000
     73 HAA          5.2690   -15.4310   -13.2670 ha         1 A1H       0.128000
     74 HCG          4.5180   -13.7500   -16.3400 h1         1 A1H       0.042367
     75 HBK          3.9010   -14.5700   -14.8950 h1         1 A1H       0.042367
     76 HCF          5.4790   -13.7520   -14.8500 h1         1 A1H       0.042367
     77 HBI          7.6830   -17.3250   -18.6430 h1         1 A1H       0.035700
     78 HCD          7.8390   -16.0820   -17.3890 h1         1 A1H       0.035700
     79 HCE          8.6470   -17.6510   -17.1920 h1         1 A1H       0.035700
     80 HCI          8.5950   -21.3150   -15.3000 h1         1 A1H       0.042367
     81 HBM          8.9490   -20.2030   -13.9660 h1         1 A1H       0.042367
     82 HCH          7.4150   -21.1010   -13.9960 h1         1 A1H       0.042367
@<TRIPOS>BOND
     1     1     2 1   
     2     1    40 1   
     3     1    41 1   
     4     1    42 1   
     5     2     3 1   
     6     2    43 1   
     7     2    44 1   
     8     3     4 1   
     9     3    45 1   
    10     3    46 1   
    11     4     5 1   
    12     4     6 1   
    13     5     8 2   
    14     5    47 1   
    15     6     7 2   
    16     7     8 1   
    17     7    48 1   
    18     8     9 1   
    19     9    10 1   
    20     9    49 1   
    21     9    50 1   
    22    10    11 1   
    23    11    12 2   
    24    11    13 1   
    25    13    14 1   
    26    13    18 1   
    27    13    51 1   
    28    14    15 1   
    29    14    52 1   
    30    14    53 1   
    31    15    16 1   
    32    15    54 1   
    33    15    55 1   
    34    16    17 1   
    35    16    56 1   
    36    16    57 1   
    37    17    18 1   
    38    17    58 1   
    39    17    59 1   
    40    18    19 1   
    41    19    20 2   
    42    19    21 1   
    43    21    22 1   
    44    21    28 1   
    45    21    60 1   
    46    22    23 1   
    47    22    27 1   
    48    22    61 1   
    49    23    24 1   
    50    23    62 1   
    51    23    63 1   
    52    24    25 1   
    53    24    64 1   
    54    24    65 1   
    55    25    26 1   
    56    25    66 1   
    57    25    67 1   
    58    26    27 1   
    59    26    68 1   
    60    26    69 1   
    61    27    70 1   
    62    27    71 1   
    63    28    29 ar  
    64    28    30 ar  
    65    29    37 ar  
    66    29    72 1   
    67    30    31 ar  
    68    30    73 1   
    69    31    32 1   
    70    31    34 ar  
    71    32    33 1   
    72    33    74 1   
    73    33    75 1   
    74    33    76 1   
    75    34    35 1   
    76    34    37 ar  
    77    35    36 1   
    78    36    77 1   
    79    36    78 1   
    80    36    79 1   
    81    37    38 1   
    82    38    39 1   
    83    39    80 1   
    84    39    81 1   
    85    39    82 1   
@<TRIPOS>SUBSTRUCTURE
     1 A1H         1 TEMP              0 ****  ****    0 ROOT
