@<TRIPOS>MOLECULE
A1H
   79    82     1     0     0
SMALL
No Charge or Current Charge


@<TRIPOS>ATOM
      1 CBF         10.7730     4.2880    -2.1930 c3         1 A1H      -0.037800
      2 CBD         10.2240     5.5530    -2.8010 cc         1 A1H      -0.113300
      3 NBC         10.9420     6.4550    -3.5830 na         1 A1H       0.130800
      4 CBE         12.3590     6.3440    -3.9660 c3         1 A1H       0.067900
      5 NBB         10.1950     7.5340    -4.0080 nc         1 A1H      -0.525800
      6 CBA          9.0110     7.2930    -3.4800 cd         1 A1H       0.278900
      7 CAZ          8.9700     6.0980    -2.7320 cd         1 A1H      -0.254300
      8 CAY          7.7610     5.5580    -2.0170 c3         1 A1H       0.252900
      9 OAX          8.0900     5.4360    -0.6260 os         1 A1H      -0.438100
     10 C            7.1470     4.9120     0.2170 c          1 A1H       0.577100
     11 O            6.0680     4.4950    -0.1850 o          1 A1H      -0.487000
     12 CA           7.6750     4.6090     1.6560 c6         1 A1H       0.042700
     13 CB           8.6290     5.7190     2.1990 c6         1 A1H      -0.073400
     14 CAS         10.0970     5.5510     1.7650 c6         1 A1H      -0.078400
     15 CAT         10.5800     4.1590     2.1800 c6         1 A1H      -0.092400
     16 CAU          9.7030     3.0440     1.5710 c6         1 A1H       0.103000
     17 N            8.2270     3.2020     1.7750 n          1 A1H      -0.390800
     18 CAH          7.3270     2.1100     1.6200 c          1 A1H       0.618100
     19 OAP          6.1320     2.2810     1.8390 o          1 A1H      -0.606100
     20 CAG          7.8300     0.7680     1.0070 c3         1 A1H      -0.087400
     21 CAJ          6.9690    -0.4870     1.3900 c6         1 A1H      -0.044700
     22 CAK          6.9760    -0.7370     2.9280 c6         1 A1H      -0.073900
     23 CAL          6.1270    -1.9740     3.3130 c6         1 A1H      -0.072400
     24 CAM          6.6080    -3.2380     2.5620 c6         1 A1H      -0.076400
     25 CAN          6.6010    -3.0090     1.0320 c6         1 A1H      -0.072400
     26 CAO          7.4470    -1.7710     0.6450 c6         1 A1H      -0.073900
     27 CAF          7.9380     0.9810    -0.5090 ca         1 A1H      -0.006300
     28 CAE          6.8200     1.3780    -1.2570 ca         1 A1H      -0.219500
     29 CAA          9.1710     0.8100    -1.1600 ca         1 A1H      -0.219500
     30 CAB          9.3100     1.0560    -2.5460 ca         1 A1H       0.153600
     31 OBG         10.5370     0.8750    -3.1630 os         1 A1H      -0.325100
     32 CBH         11.7240     0.4710    -2.4580 c3         1 A1H       0.144400
     33 CAC          8.1770     1.4960    -3.2950 ca         1 A1H       0.022100
     34 OBI          8.1990     1.8070    -4.6560 os         1 A1H      -0.325100
     35 CBJ          9.3900     1.9370    -5.4510 c3         1 A1H       0.148900
     36 CAD          6.9320     1.6410    -2.6370 ca         1 A1H       0.153600
     37 OBK          5.8420     2.0630    -3.3820 os         1 A1H      -0.325100
     38 CBL          4.5410     2.2710    -2.8040 c3         1 A1H       0.144400
     39 HCC         11.4830     4.5160    -1.3900 hc         1 A1H       0.053367
     40 HBF          9.9700     3.6770    -1.7670 hc         1 A1H       0.053367
     41 HCB         11.2910     3.6830    -2.9450 hc         1 A1H       0.053367
     42 HB9         12.6760     7.2410    -4.5100 h1         1 A1H       0.056033
     43 HCA         12.9720     6.2330    -3.0640 h1         1 A1H       0.056033
     44 HBE         12.4930     5.4650    -4.6070 h1         1 A1H       0.056033
     45 HBA          8.2030     7.9940    -3.6530 h4         1 A1H       0.047100
     46 HAY          6.9090     6.2370    -2.1610 h1         1 A1H       0.064700
     47 HB8          7.4990     4.5800    -2.4450 h1         1 A1H       0.064700
     48 HA           6.7670     4.6680     2.2720 h1         1 A1H       0.109700
     49 HB2          8.2600     6.7110     1.9040 hc         1 A1H       0.062700
     50 HB1          8.5880     5.7030     3.2970 hc         1 A1H       0.062700
     51 HB4         10.7180     6.3210     2.2440 hc         1 A1H       0.051200
     52 HB3         10.2150     5.6880     0.6820 hc         1 A1H       0.051200
     53 HB6         10.5650     4.0750     3.2750 hc         1 A1H       0.047200
     54 HB5         11.6250     4.0160     1.8720 hc         1 A1H       0.047200
     55 HB7         10.0460     2.1060     2.0240 h1         1 A1H       0.048200
     56 HAU          9.9010     2.9850     0.4920 h1         1 A1H       0.048200
     57 HAG          8.8470     0.5870     1.3590 hc         1 A1H       0.062700
     58 HAJ          5.9370    -0.2760     1.0740 hc         1 A1H       0.072700
     59 HAL          8.0080    -0.8800     3.2770 hc         1 A1H       0.040950
     60 HAK          6.5890     0.1400     3.4640 hc         1 A1H       0.040950
     61 HAN          5.0700    -1.7840     3.0810 hc         1 A1H       0.040450
     62 HAM          6.1830    -2.1420     4.3970 hc         1 A1H       0.040450
     63 HAP          5.9630    -4.0910     2.8150 hc         1 A1H       0.037200
     64 HAO          7.6220    -3.5030     2.8920 hc         1 A1H       0.037200
     65 HAR          5.5680    -2.8750     0.6830 hc         1 A1H       0.040450
     66 HAQ          6.9890    -3.9000     0.5210 hc         1 A1H       0.040450
     67 HAS          8.5050    -1.9620     0.8730 hc         1 A1H       0.040950
     68 HAT          7.3850    -1.6290    -0.4430 hc         1 A1H       0.040950
     69 HAE          5.8700     1.5000    -0.7460 ha         1 A1H       0.129000
     70 HAA         10.0220     0.4880    -0.5690 ha         1 A1H       0.129000
     71 HCE         12.5720     0.4030    -3.1510 h1         1 A1H       0.042700
     72 HBH         11.9810     1.1990    -1.6780 h1         1 A1H       0.042700
     73 HCD         11.5860    -0.5140    -1.9940 h1         1 A1H       0.042700
     74 HCG          9.1330     2.2880    -6.4580 h1         1 A1H       0.032033
     75 HBJ         10.0790     2.6660    -5.0060 h1         1 A1H       0.032033
     76 HCF          9.9010     0.9720    -5.5570 h1         1 A1H       0.032033
     77 HCI          3.8340     2.6040    -3.5740 h1         1 A1H       0.042700
     78 HBL          4.1550     1.3420    -2.3680 h1         1 A1H       0.042700
     79 HCH          4.5790     3.0400    -2.0230 h1         1 A1H       0.042700
@<TRIPOS>BOND
     1     1     2 1   
     2     1    39 1   
     3     1    40 1   
     4     1    41 1   
     5     2     3 1   
     6     2     7 2   
     7     3     4 1   
     8     3     5 1   
     9     4    42 1   
    10     4    43 1   
    11     4    44 1   
    12     5     6 2   
    13     6     7 1   
    14     6    45 1   
    15     7     8 1   
    16     8     9 1   
    17     8    46 1   
    18     8    47 1   
    19     9    10 1   
    20    10    11 2   
    21    10    12 1   
    22    12    13 1   
    23    12    17 1   
    24    12    48 1   
    25    13    14 1   
    26    13    49 1   
    27    13    50 1   
    28    14    15 1   
    29    14    51 1   
    30    14    52 1   
    31    15    16 1   
    32    15    53 1   
    33    15    54 1   
    34    16    17 1   
    35    16    55 1   
    36    16    56 1   
    37    17    18 1   
    38    18    19 2   
    39    18    20 1   
    40    20    21 1   
    41    20    27 1   
    42    20    57 1   
    43    21    22 1   
    44    21    26 1   
    45    21    58 1   
    46    22    23 1   
    47    22    59 1   
    48    22    60 1   
    49    23    24 1   
    50    23    61 1   
    51    23    62 1   
    52    24    25 1   
    53    24    63 1   
    54    24    64 1   
    55    25    26 1   
    56    25    65 1   
    57    25    66 1   
    58    26    67 1   
    59    26    68 1   
    60    27    28 ar  
    61    27    29 ar  
    62    28    36 ar  
    63    28    69 1   
    64    29    30 ar  
    65    29    70 1   
    66    30    31 1   
    67    30    33 ar  
    68    31    32 1   
    69    32    71 1   
    70    32    72 1   
    71    32    73 1   
    72    33    34 1   
    73    33    36 ar  
    74    34    35 1   
    75    35    74 1   
    76    35    75 1   
    77    35    76 1   
    78    36    37 1   
    79    37    38 1   
    80    38    77 1   
    81    38    78 1   
    82    38    79 1   
@<TRIPOS>SUBSTRUCTURE
     1 A1H         1 TEMP              0 ****  ****    0 ROOT
