@<TRIPOS>MOLECULE
A1H
   75    78     1     0     0
SMALL
No Charge or Current Charge


@<TRIPOS>ATOM
      1 CBE          2.6090    18.5930     9.7100 c3         1 A1H      -0.132400
      2 CBC          1.4790    17.6770    10.0750 cc         1 A1H       0.433700
      3 SBD          1.4690    16.8630    11.6140 ss         1 A1H      -0.013400
      4 NBB          0.4490    17.4430     9.2740 nd         1 A1H      -0.646000
      5 CBA         -0.4100    16.5330     9.8750 cd         1 A1H       0.308900
      6 CAZ         -0.0190    16.0990    11.1210 cc         1 A1H      -0.289300
      7 CAY         -0.7020    15.0580    11.9640 c3         1 A1H       0.242900
      8 OAW         -0.3360    15.2770    13.3340 os         1 A1H      -0.435100
      9 C           -0.6590    14.3170    14.2560 c          1 A1H       0.577100
     10 O           -1.1140    13.2270    13.9310 o          1 A1H      -0.475000
     11 CA           0.0190    14.5480    15.6420 c6         1 A1H       0.045700
     12 CB          -0.4030    15.9060    16.2830 c6         1 A1H      -0.072400
     13 CAS          0.4050    17.1150    15.7820 c6         1 A1H      -0.077400
     14 CAT          1.8940    16.8410    16.0120 c6         1 A1H      -0.095400
     15 CAU          2.3510    15.5470    15.3060 c6         1 A1H       0.101000
     16 N            1.5190    14.3290    15.5850 n          1 A1H      -0.399800
     17 CAI          1.9930    13.0190    15.2820 c          1 A1H       0.620100
     18 OAJ          1.2350    12.0630    15.4070 o          1 A1H      -0.605100
     19 CAG          3.4080    12.8200    14.6600 c3         1 A1H      -0.085400
     20 CAH          4.0300    11.3980    14.8970 c6         1 A1H      -0.045700
     21 CAL          4.2360    11.1110    16.4160 c6         1 A1H      -0.073400
     22 CAM          4.8480     9.7090    16.6570 c6         1 A1H      -0.072400
     23 CAN          6.1830     9.5420    15.8940 c6         1 A1H      -0.076400
     24 CAO          5.9960     9.8180    14.3840 c6         1 A1H      -0.072400
     25 CAP          5.3820    11.2190    14.1400 c6         1 A1H      -0.073400
     26 CAF          3.3040    13.1840    13.1720 ca         1 A1H      -0.009300
     27 CAE          4.1220    14.1910    12.6340 ca         1 A1H      -0.220000
     28 CAA          2.3740    12.5410    12.3390 ca         1 A1H      -0.220000
     29 CAB          2.2280    12.9050    10.9810 ca         1 A1H       0.153100
     30 OBH          1.2940    12.2590    10.1870 os         1 A1H      -0.324600
     31 CBI          0.4370    11.2100    10.6720 c3         1 A1H       0.144400
     32 CAC          3.0510    13.9410    10.4420 ca         1 A1H       0.029100
     33 OBF          2.9860    14.4040     9.1270 os         1 A1H      -0.326100
     34 CBG          1.9740    14.0360     8.1740 c3         1 A1H       0.149900
     35 CAD          4.0020    14.5690    11.2810 ca         1 A1H       0.153100
     36 OBJ          4.7860    15.5780    10.7430 os         1 A1H      -0.324600
     37 CBK          5.7220    16.3370    11.5270 c3         1 A1H       0.144400
     38 HCA          3.5300    18.0200     9.5500 hc         1 A1H       0.058367
     39 HCB          2.3890    19.1490     8.7910 hc         1 A1H       0.058367
     40 HBE          2.7920    19.3190    10.5110 hc         1 A1H       0.058367
     41 HBA         -1.2960    16.2060     9.3440 h4         1 A1H       0.048100
     42 HAY         -1.7920    15.1200    11.8360 h1         1 A1H       0.074700
     43 HB9         -0.3730    14.0670    11.6240 h1         1 A1H       0.074700
     44 HA          -0.4150    13.7620    16.2770 h1         1 A1H       0.110700
     45 HB2         -1.4760    16.0790    16.1200 hc         1 A1H       0.059700
     46 HB1         -0.2770    15.8290    17.3720 hc         1 A1H       0.059700
     47 HB3          0.2100    17.3150    14.7210 hc         1 A1H       0.053700
     48 HB4          0.1020    18.0190    16.3290 hc         1 A1H       0.053700
     49 HB5          2.4920    17.6890    15.6520 hc         1 A1H       0.048700
     50 HB6          2.0910    16.7560    17.0900 hc         1 A1H       0.048700
     51 HB7          2.3590    15.7190    14.2210 h1         1 A1H       0.051200
     52 HB8          3.3880    15.3830    15.6220 h1         1 A1H       0.051200
     53 HAG          4.0820    13.5510    15.1080 hc         1 A1H       0.062700
     54 HAH          3.3170    10.6640    14.4950 hc         1 A1H       0.073700
     55 HAM          4.8930    11.8760    16.8530 hc         1 A1H       0.040700
     56 HAL          3.2820    11.1800    16.9550 hc         1 A1H       0.040700
     57 HAN          5.0120     9.5530    17.7320 hc         1 A1H       0.040950
     58 HAO          4.1380     8.9350    16.3340 hc         1 A1H       0.040950
     59 HAP          6.9340    10.2310    16.3060 hc         1 A1H       0.037700
     60 HAQ          6.5740     8.5270    16.0430 hc         1 A1H       0.037700
     61 HAR          6.9620     9.7410    13.8680 hc         1 A1H       0.040950
     62 HAS          5.3460     9.0480    13.9450 hc         1 A1H       0.040950
     63 HAU          5.2380    11.3550    13.0600 hc         1 A1H       0.040700
     64 HAT          6.0930    11.9930    14.4590 hc         1 A1H       0.040700
     65 HAE          4.8420    14.6780    13.2830 ha         1 A1H       0.129500
     66 HAA          1.7570    11.7600    12.7710 ha         1 A1H       0.129500
     67 HBI         -0.2180    10.8540     9.8670 h1         1 A1H       0.042533
     68 HCE          1.0280    10.3580    11.0310 h1         1 A1H       0.042533
     69 HCF         -0.1990    11.5720    11.4910 h1         1 A1H       0.042533
     70 HCD          2.1030    14.6110     7.2490 h1         1 A1H       0.032700
     71 HBG          2.0430    12.9720     7.9170 h1         1 A1H       0.032700
     72 HCC          0.9710    14.2500     8.5660 h1         1 A1H       0.032700
     73 HCH          6.2190    17.0890    10.9020 h1         1 A1H       0.042533
     74 HBK          5.2090    16.8610    12.3450 h1         1 A1H       0.042533
     75 HCG          6.4950    15.6850    11.9540 h1         1 A1H       0.042533
@<TRIPOS>BOND
     1     1     2 1   
     2     1    38 1   
     3     1    39 1   
     4     1    40 1   
     5     2     3 1   
     6     2     4 2   
     7     3     6 1   
     8     4     5 1   
     9     5     6 2   
    10     5    41 1   
    11     6     7 1   
    12     7     8 1   
    13     7    42 1   
    14     7    43 1   
    15     8     9 1   
    16     9    10 2   
    17     9    11 1   
    18    11    12 1   
    19    11    16 1   
    20    11    44 1   
    21    12    13 1   
    22    12    45 1   
    23    12    46 1   
    24    13    14 1   
    25    13    47 1   
    26    13    48 1   
    27    14    15 1   
    28    14    49 1   
    29    14    50 1   
    30    15    16 1   
    31    15    51 1   
    32    15    52 1   
    33    16    17 1   
    34    17    18 2   
    35    17    19 1   
    36    19    20 1   
    37    19    26 1   
    38    19    53 1   
    39    20    21 1   
    40    20    25 1   
    41    20    54 1   
    42    21    22 1   
    43    21    55 1   
    44    21    56 1   
    45    22    23 1   
    46    22    57 1   
    47    22    58 1   
    48    23    24 1   
    49    23    59 1   
    50    23    60 1   
    51    24    25 1   
    52    24    61 1   
    53    24    62 1   
    54    25    63 1   
    55    25    64 1   
    56    26    27 ar  
    57    26    28 ar  
    58    27    35 ar  
    59    27    65 1   
    60    28    29 ar  
    61    28    66 1   
    62    29    30 1   
    63    29    32 ar  
    64    30    31 1   
    65    31    67 1   
    66    31    68 1   
    67    31    69 1   
    68    32    33 1   
    69    32    35 ar  
    70    33    34 1   
    71    34    70 1   
    72    34    71 1   
    73    34    72 1   
    74    35    36 1   
    75    36    37 1   
    76    37    73 1   
    77    37    74 1   
    78    37    75 1   
@<TRIPOS>SUBSTRUCTURE
     1 A1H         1 TEMP              0 ****  ****    0 ROOT
