@<TRIPOS>MOLECULE
A1H
   51    54     1     0     0
SMALL
No Charge or Current Charge


@<TRIPOS>ATOM
      1 C4         -10.6170   -16.0190    19.6680 c5         1 A1H       0.149700
      2 C14         -8.3910   -15.5520    18.2950 c6         1 A1H       0.243500
      3 C5         -11.3820   -17.0590    20.5610 c5         1 A1H      -0.085400
      4 C6         -12.3400   -17.7590    19.5680 c5         1 A1H      -0.071400
      5 C7         -12.8390   -16.5600    18.7240 c5         1 A1H      -0.045300
      6 C8         -14.0340   -15.8240    19.4430 c          1 A1H       0.722000
      7 C9         -11.5330   -14.5780    17.8420 c          1 A1H       0.573000
      8 C10        -10.1750   -14.0780    17.2490 c6         1 A1H       0.147500
      9 C13         -8.0900   -16.1880    16.9110 c6         1 A1H      -0.094400
     10 N1         -11.5640   -15.8040    18.5380 n          1 A1H      -0.355800
     11 N2          -8.9730   -14.1770    18.1620 n3         1 A1H      -0.766500
     12 C3          -9.2130   -16.5150    19.2240 c3         1 A1H      -0.054500
     13 C2          -8.3580   -16.8930    20.4300 c2         1 A1H      -0.200200
     14 O1         -15.1650   -16.0150    19.0150 o          1 A1H      -0.722500
     15 O2         -13.8300   -15.0650    20.3830 o          1 A1H      -0.722500
     16 O3         -12.5440   -13.8900    17.7280 o          1 A1H      -0.587000
     17 S1          -7.8870   -12.8640    18.1310 sy         1 A1H       1.182600
     18 O4          -8.6960   -11.6830    18.4510 o          1 A1H      -0.549500
     19 O5          -7.0960   -12.9580    16.9000 o          1 A1H      -0.549500
     20 C15         -6.8630   -13.1920    19.5700 ca         1 A1H      -0.259500
     21 C16         -5.4920   -13.4970    19.4260 ca         1 A1H      -0.003500
     22 C17         -4.7200   -13.7940    20.5630 ca         1 A1H       0.098000
     23 Cl1         -3.0120   -14.1790    20.3850 cl         1 A1H      -0.181000
     24 C18         -5.3060   -13.7930    21.8390 ca         1 A1H      -0.064000
     25 C19         -6.6710   -13.4930    21.9820 ca         1 A1H       0.098000
     26 Cl2         -7.4100   -13.5070    23.5780 cl         1 A1H      -0.181000
     27 C20         -7.4510   -13.1900    20.8520 ca         1 A1H      -0.003500
     28 H5         -10.4770   -15.0870    20.2320 h1         1 A1H       0.051700
     29 H18         -7.4070   -15.4780    18.7770 h1         1 A1H       0.048700
     30 H6         -10.7260   -17.7780    21.0630 hc         1 A1H       0.047700
     31 H7         -11.9350   -16.5530    21.3590 hc         1 A1H       0.047700
     32 H9         -13.1530   -18.2980    20.0680 hc         1 A1H       0.039700
     33 H8         -11.8010   -18.4820    18.9450 hc         1 A1H       0.039700
     34 H10        -13.2180   -16.9090    17.7560 h1         1 A1H       0.071700
     35 H11        -10.3880   -13.0200    17.0380 h1         1 A1H       0.109700
     36 H14        -10.1090   -16.8620    16.4190 hc         1 A1H       0.043700
     37 H15         -9.0800   -16.5930    15.0170 hc         1 A1H       0.043700
     38 H16         -7.7060   -17.2090    17.0370 hc         1 A1H       0.048200
     39 H17         -7.2860   -15.6270    16.4160 hc         1 A1H       0.048200
     40 H4          -9.3930   -17.4430    18.6690 hc         1 A1H       0.066700
     41 H1          -7.6890   -18.8160    19.8030 ha         1 A1H       0.157500
     42 H2          -7.0810   -18.2440    21.4620 ha         1 A1H       0.157500
     43 H3          -8.3230   -16.1340    21.2160 ha         1 A1H       0.167000
     44 H19         -5.0230   -13.5140    18.4440 ha         1 A1H       0.168000
     45 H20         -4.7070   -14.0280    22.7140 ha         1 A1H       0.137000
     46 H21         -8.5100   -12.9710    20.9740 ha         1 A1H       0.168000
     47 C11         -9.8750   -14.7600    15.8780 c6         1 A1H      -0.085400
     48 C12         -9.3370   -16.1980    16.0090 c6         1 A1H      -0.073400
     49 C1          -7.6770   -18.0410    20.5700 c2         1 A1H      -0.332000
     50 H13         -9.1420   -14.1530    15.3290 hc         1 A1H       0.054700
     51 H12        -10.7830   -14.7590    15.2600 hc         1 A1H       0.054700
@<TRIPOS>BOND
     1     1     3 1   
     2     1    10 1   
     3     1    12 1   
     4     1    28 1   
     5     2     9 1   
     6     2    11 1   
     7     2    12 1   
     8     2    29 1   
     9     3     4 1   
    10     3    30 1   
    11     3    31 1   
    12     4     5 1   
    13     4    32 1   
    14     4    33 1   
    15     5     6 1   
    16     5    10 1   
    17     5    34 1   
    18     6    14 1   
    19     6    15 1   
    20     7     8 1   
    21     7    10 1   
    22     7    16 2   
    23     8    11 1   
    24     8    35 1   
    25     8    47 1   
    26     9    38 1   
    27     9    39 1   
    28     9    48 1   
    29    11    17 1   
    30    12    13 1   
    31    12    40 1   
    32    13    43 1   
    33    13    49 2   
    34    17    18 2   
    35    17    19 2   
    36    17    20 1   
    37    20    21 ar  
    38    20    27 ar  
    39    21    22 ar  
    40    21    44 1   
    41    22    23 1   
    42    22    24 ar  
    43    24    25 ar  
    44    24    45 1   
    45    25    26 1   
    46    25    27 ar  
    47    27    46 1   
    48    36    48 1   
    49    37    48 1   
    50    41    49 1   
    51    42    49 1   
    52    47    48 1   
    53    47    50 1   
    54    47    51 1   
@<TRIPOS>SUBSTRUCTURE
     1 A1H         1 TEMP              0 ****  ****    0 ROOT
