@<TRIPOS>MOLECULE
A1H
   55    59     1     0     0
SMALL
No Charge or Current Charge


@<TRIPOS>ATOM
      1 C1         134.0970    -5.7360   156.9080 ca         1 A1H      -0.018300
      2 C2        -134.9360    -6.4340   157.7980 ca         1 A1H      -0.131000
      3 C3         135.6760    -7.5480   157.3710 ca         1 A1H      -0.047000
      4 C7        -133.1000    -5.5250   154.5870 cc         1 A1H       0.305500
      5 C8         131.3400    -4.7200   153.6930 cd         1 A1H       0.396400
      6 C10       -133.4740    -5.3010   153.2740 cd         1 A1H      -0.144000
      7 C11        134.8100    -5.4300   152.6320 ca         1 A1H      -0.018000
      8 C12       -134.9170    -5.7450   151.2580 ca         1 A1H      -0.099000
      9 C13        136.1700    -5.9460   150.6530 ca         1 A1H      -0.131000
     10 C14       -137.3390    -5.8180   151.4160 ca         1 A1H      -0.071000
     11 C15        139.7920    -5.9720   151.5720 c          1 A1H       0.543000
     12 C16       -139.6500    -5.0940   152.8320 c6         1 A1H       0.072600
     13 C20        137.2750   -10.1600   153.3470 ca         1 A1H      -0.016000
     14 C21       -137.3450    -9.8500   151.9760 ca         1 A1H      -0.152000
     15 C22        138.0380   -10.6880   151.0850 ca         1 A1H      -0.084000
     16 C24       -138.5950   -12.1740   152.9260 ca         1 A1H      -0.084000
     17 O2         137.0240    -9.8830   156.3600 o          1 A1H      -0.581100
     18 N3        -136.5610    -9.2630   154.1840 ns         1 A1H      -0.144000
     19 C25        137.9030   -11.3350   153.8170 ca         1 A1H      -0.152000
     20 C23       -138.6640   -11.8510   151.5610 ca         1 A1H      -0.140000
     21 C4         135.5810    -7.9990   156.0400 ca         1 A1H      -0.165600
     22 C5        -134.6900    -7.3360   155.1660 ca         1 A1H      -0.071000
     23 C6         133.9770    -6.1860   155.5680 ca         1 A1H      -0.117500
     24 C         -133.3700    -4.4930   157.4130 c3         1 A1H      -0.050800
     25 N1         132.3260    -4.7370   152.7130 na         1 A1H      -0.155500
     26 N         -131.8000    -5.2020   154.8370 nc         1 A1H      -0.660000
     27 C18        136.0010    -5.2860   153.3810 ca         1 A1H      -0.078000
     28 C17       -137.2540    -5.4750   152.7800 ca         1 A1H       0.081100
     29 O1         138.4050    -5.3580   153.5380 os         1 A1H      -0.319100
     30 O         -140.8220    -6.5570   151.2580 o          1 A1H      -0.523000
     31 N2         138.6120    -6.0900   150.8720 ns         1 A1H      -0.142000
     32 H3        -135.0370    -6.0970   158.8270 ha         1 A1H       0.118000
     33 H4         136.3420    -8.0440   158.0750 ha         1 A1H       0.135000
     34 H6        -130.3450    -4.3320   153.5060 h5         1 A1H       0.057100
     35 H7         133.1080    -3.6360   151.0850 h1         1 A1H       0.056367
     36 H9        -131.3690    -3.3940   151.3920 h1         1 A1H       0.056367
     37 H8         131.9300    -4.9160   150.6460 h1         1 A1H       0.056367
     38 H10       -134.0250    -5.9010   150.6580 ha         1 A1H       0.118000
     39 H11        136.2270    -6.2250   149.6030 ha         1 A1H       0.122000
     40 H14       -139.6630    -4.0460   152.5020 h1         1 A1H       0.086200
     41 H13        140.5060    -5.2790   153.4950 h1         1 A1H       0.086200
     42 H17       -136.8650    -8.9500   151.5950 ha         1 A1H       0.127000
     43 H18        138.0880   -10.4370   150.0280 ha         1 A1H       0.112000
     44 H20       -139.0760   -13.0780   153.2940 ha         1 A1H       0.112000
     45 H16        136.0580    -8.5500   153.6730 hn         1 A1H       0.154000
     46 H21       -137.8610   -11.6180   154.8640 ha         1 A1H       0.127000
     47 H19        139.1990   -12.5020   150.8740 ha         1 A1H       0.114000
     48 H5        -134.5530    -7.6950   154.1490 ha         1 A1H       0.114000
     49 H2         132.3100    -4.7050   157.5970 hc         1 A1H       0.050033
     50 H1        -133.4330    -3.6720   156.6900 hc         1 A1H       0.050033
     51 H          133.7990    -4.1270   158.3530 hc         1 A1H       0.050033
     52 H15       -135.9690    -5.0090   154.4300 ha         1 A1H       0.145000
     53 H12        138.6410    -6.6040   150.0010 hn         1 A1H       0.167000
     54 C9        -132.1770    -4.1360   151.3770 c3         1 A1H       0.057900
     55 C19        136.4530    -9.1440   155.5650 c          1 A1H       0.625700
@<TRIPOS>BOND
     1     1     2 ar  
     2     1    23 ar  
     3     1    24 1   
     4     2     3 ar  
     5     2    32 1   
     6     3    21 ar  
     7     3    33 1   
     8     4     6 2   
     9     4    23 1   
    10     4    26 1   
    11     5    25 1   
    12     5    26 2   
    13     5    34 1   
    14     6     7 1   
    15     6    25 1   
    16     7     8 ar  
    17     7    27 ar  
    18     8     9 ar  
    19     8    38 1   
    20     9    10 ar  
    21     9    39 1   
    22    10    28 ar  
    23    10    31 1   
    24    11    12 1   
    25    11    30 2   
    26    11    31 1   
    27    12    29 1   
    28    12    40 1   
    29    12    41 1   
    30    13    14 ar  
    31    13    18 1   
    32    13    19 ar  
    33    14    15 ar  
    34    14    42 1   
    35    15    20 ar  
    36    15    43 1   
    37    16    19 ar  
    38    16    20 ar  
    39    16    44 1   
    40    17    55 2   
    41    18    45 1   
    42    18    55 1   
    43    19    46 1   
    44    20    47 1   
    45    21    22 ar  
    46    21    55 1   
    47    22    23 ar  
    48    22    48 1   
    49    24    49 1   
    50    24    50 1   
    51    24    51 1   
    52    25    54 1   
    53    27    28 ar  
    54    27    52 1   
    55    28    29 1   
    56    31    53 1   
    57    35    54 1   
    58    36    54 1   
    59    37    54 1   
@<TRIPOS>SUBSTRUCTURE
     1 A1H         1 TEMP              0 ****  ****    0 ROOT
