@<TRIPOS>MOLECULE
A1H
   75    78     1     0     0
SMALL
abcg2


@<TRIPOS>ATOM
      1 CAG         -8.1370    18.6800   -14.9320 c3         1 A1H      -0.124400
      2 CAK         -9.3280    17.8370   -14.6330 cc         1 A1H       0.313300
      3 NAJ        -10.5800    18.3370   -14.8650 nc         1 A1H      -0.645000
      4 CAI        -11.4960    17.4860   -14.5270 cd         1 A1H       0.402300
      5 SAH        -10.9140    16.0130   -13.8850 ss         1 A1H       0.034600
      6 CAL         -9.3040    16.5740   -14.1100 cd         1 A1H      -0.298300
      7 CAM         -8.1110    15.7660   -13.7340 c3         1 A1H       0.244900
      8 OAO         -7.5100    16.2450   -12.5230 os         1 A1H      -0.425100
      9 C           -8.1440    16.0060   -11.3840 c          1 A1H       0.575100
     10 O           -9.1420    15.3380   -11.2980 o          1 A1H      -0.488000
     11 CA          -7.4260    16.6260   -10.1910 c6         1 A1H       0.044700
     12 CB          -8.3790    16.9480    -9.0410 c6         1 A1H      -0.073400
     13 CAS         -9.2390    18.1690    -9.3310 c6         1 A1H      -0.077400
     14 CAR         -8.3560    19.3460    -9.7180 c6         1 A1H      -0.094400
     15 CAQ         -7.4490    18.9740   -10.8800 c6         1 A1H       0.101000
     16 N           -6.6520    17.7940   -10.5720 n          1 A1H      -0.394800
     17 CBC         -5.3250    17.6430   -10.8080 c          1 A1H       0.621100
     18 OBB         -4.7780    16.5550   -10.6910 o          1 A1H      -0.606100
     19 CBE         -4.5170    18.8660   -11.2360 c3         1 A1H      -0.087400
     20 CBD         -3.0760    18.7950   -10.6980 c6         1 A1H      -0.045700
     21 CAV         -2.2190    19.9320   -11.2590 c6         1 A1H      -0.073400
     22 CAW         -0.8010    19.9010   -10.6960 c6         1 A1H      -0.072400
     23 CAX         -0.8000    19.9470    -9.1730 c6         1 A1H      -0.075400
     24 CAY         -1.6540    18.8240    -8.5990 c6         1 A1H      -0.072400
     25 CAZ         -3.0700    18.8560    -9.1680 c6         1 A1H      -0.073400
     26 CBF         -4.5710    18.9920   -12.7460 ca         1 A1H      -0.008300
     27 CBK         -4.1490    17.9420   -13.5540 ca         1 A1H      -0.220500
     28 CBG         -4.9800    20.1910   -13.3150 ca         1 A1H      -0.220500
     29 CBH         -4.9440    20.3570   -14.6990 ca         1 A1H       0.154600
     30 OAF         -5.3130    21.4820   -15.3360 os         1 A1H      -0.324100
     31 CAE         -5.8560    22.5410   -14.5740 c3         1 A1H       0.144400
     32 CBI         -4.4850    19.3210   -15.5140 ca         1 A1H       0.024100
     33 OAD         -4.3830    19.4980   -16.8580 os         1 A1H      -0.326100
     34 CAC         -5.5480    19.1510   -17.5920 c3         1 A1H       0.147900
     35 CBJ         -4.1060    18.1050   -14.9360 ca         1 A1H       0.154600
     36 OAB         -3.7000    17.1590   -15.8010 os         1 A1H      -0.324100
     37 CAA         -3.3190    15.8980   -15.2900 c3         1 A1H       0.144400
     38 HAK         -8.2510    19.1810   -15.8930 hc         1 A1H       0.052700
     39 HAL         -8.0060    19.4540   -14.1740 hc         1 A1H       0.052700
     40 HAJ         -7.2170    18.0990   -14.9620 hc         1 A1H       0.052700
     41 HAM        -12.5560    17.6700   -14.6320 h5         1 A1H       0.052100
     42 HAN         -8.3490    14.7050   -13.6520 h1         1 A1H       0.072200
     43 HAO         -7.3300    15.8740   -14.4850 h1         1 A1H       0.072200
     44 HA          -6.7270    15.8590    -9.8480 h1         1 A1H       0.110700
     45 HB2         -8.9890    16.0740    -8.8190 hc         1 A1H       0.062700
     46 HB1         -7.7670    17.1370    -8.1560 hc         1 A1H       0.062700
     47 HAV         -9.8460    18.4130    -8.4570 hc         1 A1H       0.050700
     48 HAU         -9.9390    17.9540   -10.1450 hc         1 A1H       0.050700
     49 HAT         -7.7460    19.6560    -8.8650 hc         1 A1H       0.049700
     50 HAS         -8.9610    20.2070   -10.0100 hc         1 A1H       0.049700
     51 HAR         -6.8080    19.8100   -11.1330 h1         1 A1H       0.051700
     52 HAQ         -8.0610    18.7760   -11.7680 h1         1 A1H       0.051700
     53 HBE         -4.9490    19.7750   -10.8100 hc         1 A1H       0.062700
     54 HBD         -2.6270    17.8460   -11.0120 hc         1 A1H       0.072700
     55 HB3         -2.6870    20.8930   -11.0100 hc         1 A1H       0.040700
     56 HB4         -2.1810    19.8790   -12.3480 hc         1 A1H       0.040700
     57 HAW         -0.3020    18.9850   -11.0300 hc         1 A1H       0.040700
     58 HB5         -0.2230    20.7340   -11.1030 hc         1 A1H       0.040700
     59 HAX          0.2220    19.8840    -8.7900 hc         1 A1H       0.037200
     60 HB6         -1.1990    20.9120    -8.8400 hc         1 A1H       0.037200
     61 HAY         -1.1930    17.8600    -8.8380 hc         1 A1H       0.040700
     62 HB7         -1.6910    18.8890    -7.5090 hc         1 A1H       0.040700
     63 HB8         -3.5640    19.7820    -8.8520 hc         1 A1H       0.040700
     64 HAZ         -3.6500    18.0340    -8.7450 hc         1 A1H       0.040700
     65 HBK         -3.8360    17.0120   -13.0990 ha         1 A1H       0.128500
     66 HBG         -5.3040    20.9960   -12.6700 ha         1 A1H       0.128500
     67 HAI         -6.1190    23.3250   -15.2800 h1         1 A1H       0.042533
     68 HAG         -6.7570    22.2350   -14.0360 h1         1 A1H       0.042533
     69 HAH         -5.1360    22.9430   -13.8560 h1         1 A1H       0.042533
     70 HAF         -5.3240    19.3140   -18.6450 h1         1 A1H       0.033367
     71 HAD         -5.8210    18.1020   -17.4510 h1         1 A1H       0.033367
     72 HAE         -6.4030    19.7730   -17.3170 h1         1 A1H       0.033367
     73 HAA         -3.0440    15.2890   -16.1480 h1         1 A1H       0.042533
     74 HAB         -2.4570    15.9700   -14.6210 h1         1 A1H       0.042533
     75 HAC         -4.1380    15.4070   -14.7580 h1         1 A1H       0.042533
@<TRIPOS>BOND
     1     1     2 1   
     2     1    38 1   
     3     1    39 1   
     4     1    40 1   
     5     2     3 1   
     6     2     6 2   
     7     3     4 2   
     8     4     5 1   
     9     4    41 1   
    10     5     6 1   
    11     6     7 1   
    12     7     8 1   
    13     7    42 1   
    14     7    43 1   
    15     8     9 1   
    16     9    10 2   
    17     9    11 1   
    18    11    12 1   
    19    11    16 1   
    20    11    44 1   
    21    12    13 1   
    22    12    45 1   
    23    12    46 1   
    24    13    14 1   
    25    13    47 1   
    26    13    48 1   
    27    14    15 1   
    28    14    49 1   
    29    14    50 1   
    30    15    16 1   
    31    15    51 1   
    32    15    52 1   
    33    16    17 1   
    34    17    18 2   
    35    17    19 1   
    36    19    20 1   
    37    19    26 1   
    38    19    53 1   
    39    20    21 1   
    40    20    25 1   
    41    20    54 1   
    42    21    22 1   
    43    21    55 1   
    44    21    56 1   
    45    22    23 1   
    46    22    57 1   
    47    22    58 1   
    48    23    24 1   
    49    23    59 1   
    50    23    60 1   
    51    24    25 1   
    52    24    61 1   
    53    24    62 1   
    54    25    63 1   
    55    25    64 1   
    56    26    27 ar  
    57    26    28 ar  
    58    27    35 ar  
    59    27    65 1   
    60    28    29 ar  
    61    28    66 1   
    62    29    30 1   
    63    29    32 ar  
    64    30    31 1   
    65    31    67 1   
    66    31    68 1   
    67    31    69 1   
    68    32    33 1   
    69    32    35 ar  
    70    33    34 1   
    71    34    70 1   
    72    34    71 1   
    73    34    72 1   
    74    35    36 1   
    75    36    37 1   
    76    37    73 1   
    77    37    74 1   
    78    37    75 1   
@<TRIPOS>SUBSTRUCTURE
     1 A1H         1 TEMP              0 ****  ****    0 ROOT
