@<TRIPOS>MOLECULE
A1H
   75    78     1     0     0
SMALL
abcg2


@<TRIPOS>ATOM
      1 CBE          2.5320    17.9870    10.2690 c3         1 A1H      -0.132400
      2 CBC          1.2610    17.3100    10.6460 cc         1 A1H       0.433700
      3 SBD          1.2410    15.6390    11.0830 ss         1 A1H      -0.013400
      4 NBB          0.1000    17.8840    10.6970 nd         1 A1H      -0.646000
      5 CBA         -0.8680    17.0120    11.1050 cd         1 A1H       0.308900
      6 CAZ         -0.4550    15.7450    11.3610 cc         1 A1H      -0.289300
      7 CAY         -1.2280    14.5840    11.8720 c3         1 A1H       0.242900
      8 OAW         -0.6830    14.1560    13.1260 os         1 A1H      -0.435100
      9 C           -0.9810    14.8600    14.2140 c          1 A1H       0.577100
     10 O           -1.8280    15.7120    14.2510 o          1 A1H      -0.475000
     11 CA          -0.1310    14.4100    15.3970 c6         1 A1H       0.045700
     12 CB          -0.3140    15.2820    16.6350 c6         1 A1H      -0.072400
     13 CAS          0.3620    16.6420    16.5100 c6         1 A1H      -0.077400
     14 CAT          1.8150    16.4750    16.0850 c6         1 A1H      -0.095400
     15 CAU          1.9080    15.6350    14.8210 c6         1 A1H       0.101000
     16 N            1.2690    14.3390    15.0080 n          1 A1H      -0.399800
     17 CAI          1.8190    13.1250    14.7590 c          1 A1H       0.620100
     18 OAJ          1.1620    12.0980    14.8670 o          1 A1H      -0.605100
     19 CAG          3.2790    13.0570    14.3120 c3         1 A1H      -0.085400
     20 CAH          3.9450    11.7550    14.7970 c6         1 A1H      -0.045700
     21 CAL          3.9750    11.7000    16.3280 c6         1 A1H      -0.073400
     22 CAM          4.6570    10.4380    16.8440 c6         1 A1H      -0.072400
     23 CAN          6.0700    10.3060    16.2890 c6         1 A1H      -0.076400
     24 CAO          6.0560    10.3620    14.7670 c6         1 A1H      -0.072400
     25 CAP          5.3700    11.6260    14.2550 c6         1 A1H      -0.073400
     26 CAF          3.3360    13.2110    12.8040 ca         1 A1H      -0.009300
     27 CAE          4.2250    14.1130    12.2350 ca         1 A1H      -0.220000
     28 CAA          2.5410    12.4090    11.9910 ca         1 A1H      -0.220000
     29 CAB          2.6560    12.4920    10.6060 ca         1 A1H       0.153100
     30 OBH          1.9260    11.7640     9.7440 os         1 A1H      -0.324600
     31 CBI          0.8950    10.9450    10.2570 c3         1 A1H       0.144400
     32 CAC          3.5800    13.3660    10.0280 ca         1 A1H       0.029100
     33 OBF          3.7280    13.4080     8.6770 os         1 A1H      -0.326100
     34 CBG          2.8620    14.3180     8.0130 c3         1 A1H       0.149900
     35 CAD          4.3490    14.1950    10.8480 ca         1 A1H       0.153100
     36 OBJ          5.1820    15.0350    10.2080 os         1 A1H      -0.324600
     37 CBK          5.9890    15.9000    10.9790 c3         1 A1H       0.144400
     38 HCA          2.9700    17.5440     9.3730 hc         1 A1H       0.058367
     39 HCB          2.3450    19.0410    10.0750 hc         1 A1H       0.058367
     40 HBE          3.2720    17.9060    11.0660 hc         1 A1H       0.058367
     41 HBA         -1.8890    17.3540    11.2100 h4         1 A1H       0.048100
     42 HAY         -2.2850    14.8400    11.9570 h1         1 A1H       0.074700
     43 HB9         -1.1380    13.7160    11.2190 h1         1 A1H       0.074700
     44 HA          -0.4600    13.3960    15.6360 h1         1 A1H       0.110700
     45 HB2         -1.3770    15.3890    16.8510 hc         1 A1H       0.059700
     46 HB1          0.1210    14.7380    17.4770 hc         1 A1H       0.059700
     47 HB3         -0.1620    17.2590    15.7770 hc         1 A1H       0.053700
     48 HB4          0.3020    17.1720    17.4620 hc         1 A1H       0.053700
     49 HB5          2.2770    17.4460    15.8980 hc         1 A1H       0.048700
     50 HB6          2.3900    15.9920    16.8810 hc         1 A1H       0.048700
     51 HB7          1.4210    16.1620    13.9920 h1         1 A1H       0.051200
     52 HB8          2.9430    15.5090    14.5230 h1         1 A1H       0.051200
     53 HAG          3.8530    13.8720    14.7580 hc         1 A1H       0.062700
     54 HAH          3.3630    10.9050    14.4260 hc         1 A1H       0.073700
     55 HAM          4.5160    12.5800    16.6990 hc         1 A1H       0.040700
     56 HAL          2.9640    11.7600    16.7360 hc         1 A1H       0.040700
     57 HAN          4.6740    10.4450    17.9360 hc         1 A1H       0.040950
     58 HAO          4.0680     9.5630    16.5480 hc         1 A1H       0.040950
     59 HAP          6.6890    11.1220    16.6780 hc         1 A1H       0.037700
     60 HAQ          6.5300     9.3760    16.6320 hc         1 A1H       0.037700
     61 HAR          7.0740    10.3080    14.3730 hc         1 A1H       0.040950
     62 HAS          5.5260     9.4850    14.3800 hc         1 A1H       0.040950
     63 HAU          5.3650    11.6220    13.1630 hc         1 A1H       0.040700
     64 HAT          5.9520    12.5050    14.5600 hc         1 A1H       0.040700
     65 HAE          4.8300    14.7320    12.8850 ha         1 A1H       0.129500
     66 HAA          1.8490    11.7140    12.4450 ha         1 A1H       0.129500
     67 HBI          0.3940    10.5060     9.3980 h1         1 A1H       0.042533
     68 HCE          1.2830    10.1400    10.8860 h1         1 A1H       0.042533
     69 HCF          0.1660    11.5210    10.8340 h1         1 A1H       0.042533
     70 HCD          3.0580    14.2250     6.9460 h1         1 A1H       0.032700
     71 HBG          1.8100    14.0920     8.1980 h1         1 A1H       0.032700
     72 HCC          3.0530    15.3510     8.3130 h1         1 A1H       0.032700
     73 HCH          6.5730    16.4870    10.2740 h1         1 A1H       0.042533
     74 HBK          5.3920    16.5800    11.5910 h1         1 A1H       0.042533
     75 HCG          6.6750    15.3500    11.6300 h1         1 A1H       0.042533
@<TRIPOS>BOND
     1     1     2 1   
     2     1    38 1   
     3     1    39 1   
     4     1    40 1   
     5     2     3 1   
     6     2     4 2   
     7     3     6 1   
     8     4     5 1   
     9     5     6 2   
    10     5    41 1   
    11     6     7 1   
    12     7     8 1   
    13     7    42 1   
    14     7    43 1   
    15     8     9 1   
    16     9    10 2   
    17     9    11 1   
    18    11    12 1   
    19    11    16 1   
    20    11    44 1   
    21    12    13 1   
    22    12    45 1   
    23    12    46 1   
    24    13    14 1   
    25    13    47 1   
    26    13    48 1   
    27    14    15 1   
    28    14    49 1   
    29    14    50 1   
    30    15    16 1   
    31    15    51 1   
    32    15    52 1   
    33    16    17 1   
    34    17    18 2   
    35    17    19 1   
    36    19    20 1   
    37    19    26 1   
    38    19    53 1   
    39    20    21 1   
    40    20    25 1   
    41    20    54 1   
    42    21    22 1   
    43    21    55 1   
    44    21    56 1   
    45    22    23 1   
    46    22    57 1   
    47    22    58 1   
    48    23    24 1   
    49    23    59 1   
    50    23    60 1   
    51    24    25 1   
    52    24    61 1   
    53    24    62 1   
    54    25    63 1   
    55    25    64 1   
    56    26    27 ar  
    57    26    28 ar  
    58    27    35 ar  
    59    27    65 1   
    60    28    29 ar  
    61    28    66 1   
    62    29    30 1   
    63    29    32 ar  
    64    30    31 1   
    65    31    67 1   
    66    31    68 1   
    67    31    69 1   
    68    32    33 1   
    69    32    35 ar  
    70    33    34 1   
    71    34    70 1   
    72    34    71 1   
    73    34    72 1   
    74    35    36 1   
    75    36    37 1   
    76    37    73 1   
    77    37    74 1   
    78    37    75 1   
@<TRIPOS>SUBSTRUCTURE
     1 A1H         1 TEMP              0 ****  ****    0 ROOT
