@<TRIPOS>MOLECULE
A1H
   79    82     1     0     0
SMALL
abcg2


@<TRIPOS>ATOM
      1 CBF         10.3510     4.0950    -2.8460 c3         1 A1H      -0.037800
      2 CBD          9.9130     5.5100    -2.7470 cc         1 A1H      -0.113300
      3 NBC         10.7390     6.5490    -2.9730 na         1 A1H       0.130800
      4 CBE         12.1240     6.4750    -3.3700 c3         1 A1H       0.067900
      5 NBB         10.1360     7.7310    -2.8290 nc         1 A1H      -0.525800
      6 CBA          8.8960     7.4460    -2.4890 cd         1 A1H       0.278900
      7 CAZ          8.6850     6.0600    -2.4240 cd         1 A1H      -0.254300
      8 CAY          7.4410     5.3340    -2.0640 c3         1 A1H       0.252900
      9 OAX          7.5390     4.6960    -0.7760 os         1 A1H      -0.438100
     10 C            7.5370     5.4580     0.3020 c          1 A1H       0.577100
     11 O            7.3590     6.6500     0.2920 o          1 A1H      -0.487000
     12 CA           7.7230     4.6540     1.5880 c6         1 A1H       0.042700
     13 CB           8.5400     5.4230     2.6250 c6         1 A1H      -0.073400
     14 CAS         10.0200     5.4540     2.2770 c6         1 A1H      -0.078400
     15 CAT         10.5240     4.0330     2.0800 c6         1 A1H      -0.092400
     16 CAU          9.7010     3.3040     1.0300 c6         1 A1H       0.103000
     17 N            8.2790     3.3350     1.3440 n          1 A1H      -0.390800
     18 CAH          7.4130     2.3030     1.1730 c          1 A1H       0.618100
     19 OAP          6.2060     2.4600     1.2970 o          1 A1H      -0.606100
     20 CAG          7.9710     0.9350     0.7820 c3         1 A1H      -0.087400
     21 CAJ          7.0840    -0.2090     1.3050 c6         1 A1H      -0.044700
     22 CAK          7.0610    -0.2260     2.8360 c6         1 A1H      -0.073900
     23 CAL          6.2080    -1.3660     3.3810 c6         1 A1H      -0.072400
     24 CAM          6.6850    -2.7140     2.8550 c6         1 A1H      -0.076400
     25 CAN          6.7280    -2.7120     1.3320 c6         1 A1H      -0.072400
     26 CAO          7.5730    -1.5640     0.7900 c6         1 A1H      -0.073900
     27 CAF          8.1330     0.9060    -0.7260 ca         1 A1H      -0.006300
     28 CAE          7.0430     1.1700    -1.5480 ca         1 A1H      -0.219500
     29 CAA          9.3630     0.5750    -1.2810 ca         1 A1H      -0.219500
     30 CAB          9.5060     0.4950    -2.6660 ca         1 A1H       0.153600
     31 OBG         10.6550     0.1880    -3.2930 os         1 A1H      -0.325100
     32 CBH         11.8130    -0.0220    -2.5110 c3         1 A1H       0.144400
     33 CAC          8.4120     0.7420    -3.4960 ca         1 A1H       0.022100
     34 OBI          8.5270     0.6280    -4.8460 os         1 A1H      -0.325100
     35 CBJ          8.9600     1.8110    -5.5030 c3         1 A1H       0.148900
     36 CAD          7.1820     1.0950    -2.9310 ca         1 A1H       0.153600
     37 OBK          6.1920     1.3370    -3.8070 os         1 A1H      -0.325100
     38 CBL          4.9380     1.7540    -3.3070 c3         1 A1H       0.144400
     39 HCC         11.1010     3.8510    -2.0890 hc         1 A1H       0.053367
     40 HBF          9.5080     3.4220    -2.7020 hc         1 A1H       0.053367
     41 HCB         10.7900     3.8740    -3.8210 hc         1 A1H       0.053367
     42 HB9         12.5550     7.4690    -3.2960 h1         1 A1H       0.056033
     43 HCA         12.6740     5.8030    -2.7140 h1         1 A1H       0.056033
     44 HBE         12.2230     6.1210    -4.3960 h1         1 A1H       0.056033
     45 HBA          8.1840     8.2360    -2.3020 h4         1 A1H       0.047100
     46 HAY          6.5790     6.0020    -2.0910 h1         1 A1H       0.064700
     47 HB8          7.2450     4.5080    -2.7480 h1         1 A1H       0.064700
     48 HA           6.7150     4.5230     1.9860 h1         1 A1H       0.109700
     49 HB2          8.1330     6.4280     2.7320 hc         1 A1H       0.062700
     50 HB1          8.4030     4.9270     3.5890 hc         1 A1H       0.062700
     51 HB4         10.5810     5.9570     3.0670 hc         1 A1H       0.051200
     52 HB3         10.1810     6.0340     1.3620 hc         1 A1H       0.051200
     53 HB6         10.4740     3.4850     3.0260 hc         1 A1H       0.047200
     54 HB5         11.5680     4.0290     1.7620 hc         1 A1H       0.047200
     55 HB7         10.0450     2.2790     0.9550 h1         1 A1H       0.048200
     56 HAU          9.8730     3.7600     0.0490 h1         1 A1H       0.048200
     57 HAG          8.9570     0.7830     1.2300 hc         1 A1H       0.062700
     58 HAJ          6.0620    -0.0570     0.9410 hc         1 A1H       0.072700
     59 HAL          8.0900    -0.3400     3.2000 hc         1 A1H       0.040950
     60 HAK          6.6940     0.7240     3.2290 hc         1 A1H       0.040950
     61 HAN          5.1650    -1.2100     3.0840 hc         1 A1H       0.040450
     62 HAM          6.2250    -1.3530     4.4730 hc         1 A1H       0.040450
     63 HAP          6.0370    -3.5160     3.2170 hc         1 A1H       0.037200
     64 HAO          7.6870    -2.9210     3.2470 hc         1 A1H       0.037200
     65 HAR          5.7070    -2.6180     0.9450 hc         1 A1H       0.040450
     66 HAQ          7.1140    -3.6640     0.9600 hc         1 A1H       0.040450
     67 HAS          8.6190    -1.7060     1.0910 hc         1 A1H       0.040950
     68 HAT          7.5600    -1.5870    -0.3020 hc         1 A1H       0.040950
     69 HAE          6.0920     1.4270    -1.1030 ha         1 A1H       0.129000
     70 HAA         10.1990     0.3720    -0.6250 ha         1 A1H       0.129000
     71 HCE         12.6210    -0.2340    -3.2080 h1         1 A1H       0.042700
     72 HBH         12.0770     0.8620    -1.9260 h1         1 A1H       0.042700
     73 HCD         11.7020    -0.8730    -1.8340 h1         1 A1H       0.042700
     74 HCG          8.8860     1.6310    -6.5740 h1         1 A1H       0.032033
     75 HBJ          8.3330     2.6700    -5.2480 h1         1 A1H       0.032033
     76 HCF          9.9970     2.0530    -5.2600 h1         1 A1H       0.032033
     77 HCI          4.2990     1.9140    -4.1720 h1         1 A1H       0.042700
     78 HBL          4.4790     0.9980    -2.6660 h1         1 A1H       0.042700
     79 HCH          5.0120     2.6910    -2.7470 h1         1 A1H       0.042700
@<TRIPOS>BOND
     1     1     2 1   
     2     1    39 1   
     3     1    40 1   
     4     1    41 1   
     5     2     3 1   
     6     2     7 2   
     7     3     4 1   
     8     3     5 1   
     9     4    42 1   
    10     4    43 1   
    11     4    44 1   
    12     5     6 2   
    13     6     7 1   
    14     6    45 1   
    15     7     8 1   
    16     8     9 1   
    17     8    46 1   
    18     8    47 1   
    19     9    10 1   
    20    10    11 2   
    21    10    12 1   
    22    12    13 1   
    23    12    17 1   
    24    12    48 1   
    25    13    14 1   
    26    13    49 1   
    27    13    50 1   
    28    14    15 1   
    29    14    51 1   
    30    14    52 1   
    31    15    16 1   
    32    15    53 1   
    33    15    54 1   
    34    16    17 1   
    35    16    55 1   
    36    16    56 1   
    37    17    18 1   
    38    18    19 2   
    39    18    20 1   
    40    20    21 1   
    41    20    27 1   
    42    20    57 1   
    43    21    22 1   
    44    21    26 1   
    45    21    58 1   
    46    22    23 1   
    47    22    59 1   
    48    22    60 1   
    49    23    24 1   
    50    23    61 1   
    51    23    62 1   
    52    24    25 1   
    53    24    63 1   
    54    24    64 1   
    55    25    26 1   
    56    25    65 1   
    57    25    66 1   
    58    26    67 1   
    59    26    68 1   
    60    27    28 ar  
    61    27    29 ar  
    62    28    36 ar  
    63    28    69 1   
    64    29    30 ar  
    65    29    70 1   
    66    30    31 1   
    67    30    33 ar  
    68    31    32 1   
    69    32    71 1   
    70    32    72 1   
    71    32    73 1   
    72    33    34 1   
    73    33    36 ar  
    74    34    35 1   
    75    35    74 1   
    76    35    75 1   
    77    35    76 1   
    78    36    37 1   
    79    37    38 1   
    80    38    77 1   
    81    38    78 1   
    82    38    79 1   
@<TRIPOS>SUBSTRUCTURE
     1 A1H         1 TEMP              0 ****  ****    0 ROOT
