@<TRIPOS>MOLECULE
A1H
   80    83     1     0     0
SMALL
No Charge or Current Charge


@<TRIPOS>ATOM
      1 CBK          5.1530   -13.3350   -14.8690 c3         1 A1H       0.144900
      2 OBJ          5.8880   -14.4210   -15.4590 os         1 A1H      -0.322600
      3 CAD          6.1950   -15.5760   -14.7610 ca         1 A1H       0.155100
      4 CAE          5.7570   -15.7810   -13.4360 ca         1 A1H      -0.220500
      5 CAC          6.9860   -16.5580   -15.3980 ca         1 A1H       0.023100
      6 OBH          7.3960   -16.3450   -16.7030 os         1 A1H      -0.329100
      7 CBI          8.7950   -16.2140   -17.0120 c3         1 A1H       0.144900
      8 CAB          7.3200   -17.7490   -14.7090 ca         1 A1H       0.155100
      9 OBL          8.0540   -18.7220   -15.3670 os         1 A1H      -0.322600
     10 CBM          8.4770   -19.9400   -14.7320 c3         1 A1H       0.144900
     11 CAA          6.8780   -17.9320   -13.3800 ca         1 A1H      -0.220500
     12 CAF          6.0990   -16.9530   -12.7370 ca         1 A1H      -0.009300
     13 CAG          5.6390   -17.1610   -11.2880 c3         1 A1H      -0.087400
     14 CAJ          4.0800   -17.2660   -11.1460 c6         1 A1H      -0.045700
     15 CAK          3.6600   -17.5670    -9.6750 c6         1 A1H      -0.073400
     16 CAL          2.1220   -17.6730    -9.5280 c6         1 A1H      -0.072400
     17 CAM          1.5410   -18.7420   -10.4830 c6         1 A1H      -0.075400
     18 CAN          1.9430   -18.4530   -11.9480 c6         1 A1H      -0.072400
     19 CAO          3.4810   -18.3450   -12.0980 c6         1 A1H      -0.073400
     20 CAH          6.2820   -16.0260   -10.4360 c          1 A1H       0.622100
     21 OAP          5.6920   -14.9640   -10.2740 o          1 A1H      -0.606100
     22 N            7.6220   -16.1540    -9.9750 n          1 A1H      -0.395800
     23 CAU          8.3630   -17.4540   -10.0640 c6         1 A1H       0.099000
     24 CAT          9.6330   -17.5600    -9.1950 c6         1 A1H      -0.093400
     25 CAS         10.5610   -16.3600    -9.4010 c6         1 A1H      -0.076400
     26 CB           9.7870   -15.0740    -9.0620 c6         1 A1H      -0.072400
     27 CA           8.4590   -14.8970    -9.8630 c6         1 A1H       0.044700
     28 C            8.6910   -14.2410   -11.2580 c          1 A1H       0.579100
     29 O            7.8990   -13.4390   -11.7380 o          1 A1H      -0.491000
     30 OAX          9.5960   -14.9230   -12.0260 os         1 A1H      -0.434100
     31 CAY          9.7230   -14.5630   -13.4070 c3         1 A1H       0.254900
     32 CAZ         10.6500   -15.5560   -14.0460 cc         1 A1H      -0.263300
     33 CBD         11.6330   -15.3620   -14.9710 cd         1 A1H      -0.111000
     34 CBA         10.6280   -16.9360   -13.7940 cc         1 A1H       0.261900
     35 NBB         11.5140   -17.6270   -14.4810 nd         1 A1H      -0.543800
     36 NBC         12.1420   -16.6390   -15.2290 na         1 A1H       0.132800
     37 CBE         13.2210   -16.9750   -16.1730 c3         1 A1H       0.084600
     38 CBF         12.7340   -17.1700   -17.6260 c3         1 A1H       0.141600
     39 OBG         12.2800   -15.9280   -18.1900 oh         1 A1H      -0.661000
     40 HCD          5.0370   -12.5180   -15.5920 h1         1 A1H       0.042367
     41 HCE          4.1500   -13.6620   -14.5640 h1         1 A1H       0.042367
     42 HBK          5.6780   -12.9410   -13.9900 h1         1 A1H       0.042367
     43 HAE          5.1550   -15.0320   -12.9320 ha         1 A1H       0.129000
     44 HCC          8.9320   -16.0620   -18.0900 h1         1 A1H       0.035033
     45 HBI          9.2220   -15.3490   -16.4910 h1         1 A1H       0.035033
     46 HCB          9.3600   -17.1080   -16.7220 h1         1 A1H       0.035033
     47 HBM          9.0590   -20.5510   -15.4330 h1         1 A1H       0.042367
     48 HCF          9.1090   -19.7270   -13.8610 h1         1 A1H       0.042367
     49 HCG          7.6120   -20.5310   -14.4050 h1         1 A1H       0.042367
     50 HAA          7.1240   -18.8400   -12.8390 ha         1 A1H       0.129000
     51 HAG          6.0560   -18.1190   -10.9740 hc         1 A1H       0.062700
     52 HAJ          3.6630   -16.2890   -11.4320 hc         1 A1H       0.072700
     53 HAL          4.1250   -18.5050    -9.3400 hc         1 A1H       0.040700
     54 HAK          4.0280   -16.7820    -9.0010 hc         1 A1H       0.040700
     55 HAN          1.6620   -16.6980    -9.7390 hc         1 A1H       0.040200
     56 HAM          1.8640   -17.9220    -8.4900 hc         1 A1H       0.040200
     57 HAP          0.4460   -18.7670   -10.3940 hc         1 A1H       0.036700
     58 HAO          1.9010   -19.7380   -10.1890 hc         1 A1H       0.036700
     59 HAR          1.4720   -17.5190   -12.2840 hc         1 A1H       0.040200
     60 HAQ          1.5610   -19.2480   -12.6030 hc         1 A1H       0.040200
     61 HAS          3.9400   -19.3220   -11.8910 hc         1 A1H       0.040700
     62 HAT          3.7170   -18.1070   -13.1440 hc         1 A1H       0.040700
     63 HB7          7.7060   -18.2760    -9.7490 h1         1 A1H       0.053700
     64 HAU          8.6350   -17.6270   -11.1140 h1         1 A1H       0.053700
     65 HB5          9.3450   -17.6250    -8.1360 hc         1 A1H       0.047700
     66 HB6         10.1650   -18.4920    -9.4300 hc         1 A1H       0.047700
     67 HB3         11.4400   -16.4500    -8.7480 hc         1 A1H       0.050700
     68 HB4         10.9410   -16.3410   -10.4310 hc         1 A1H       0.050700
     69 HB2         10.4330   -14.1970    -9.2090 hc         1 A1H       0.059200
     70 HB1          9.5450   -15.0860    -7.9900 hc         1 A1H       0.059200
     71 HA           7.8730   -14.1440    -9.3180 h1         1 A1H       0.108700
     72 HB8         10.1270   -13.5470   -13.5120 h1         1 A1H       0.064200
     73 HAY          8.7510   -14.6050   -13.9160 h1         1 A1H       0.064200
     74 HBD         11.9930   -14.4670   -15.4660 h4         1 A1H       0.164000
     75 HBA          9.9730   -17.4650   -13.1140 h4         1 A1H       0.045100
     76 HB9         13.7020   -17.8990   -15.8340 h1         1 A1H       0.072200
     77 HBE         13.9750   -16.1790   -16.1440 h1         1 A1H       0.072200
     78 HCA         11.9290   -17.9170   -17.6400 h1         1 A1H       0.036200
     79 HBF         13.5670   -17.5680   -18.2210 h1         1 A1H       0.036200
     80 HBG         12.0650   -16.1000   -19.1340 ho         1 A1H       0.451000
@<TRIPOS>BOND
     1     1     2 1   
     2     1    40 1   
     3     1    41 1   
     4     1    42 1   
     5     2     3 1   
     6     3     4 ar  
     7     3     5 ar  
     8     4    12 ar  
     9     4    43 1   
    10     5     6 1   
    11     5     8 ar  
    12     6     7 1   
    13     7    44 1   
    14     7    45 1   
    15     7    46 1   
    16     8     9 1   
    17     8    11 ar  
    18     9    10 1   
    19    10    47 1   
    20    10    48 1   
    21    10    49 1   
    22    11    12 ar  
    23    11    50 1   
    24    12    13 1   
    25    13    14 1   
    26    13    20 1   
    27    13    51 1   
    28    14    15 1   
    29    14    19 1   
    30    14    52 1   
    31    15    16 1   
    32    15    53 1   
    33    15    54 1   
    34    16    17 1   
    35    16    55 1   
    36    16    56 1   
    37    17    18 1   
    38    17    57 1   
    39    17    58 1   
    40    18    19 1   
    41    18    59 1   
    42    18    60 1   
    43    19    61 1   
    44    19    62 1   
    45    20    21 2   
    46    20    22 1   
    47    22    23 1   
    48    22    27 1   
    49    23    24 1   
    50    23    63 1   
    51    23    64 1   
    52    24    25 1   
    53    24    65 1   
    54    24    66 1   
    55    25    26 1   
    56    25    67 1   
    57    25    68 1   
    58    26    27 1   
    59    26    69 1   
    60    26    70 1   
    61    27    28 1   
    62    27    71 1   
    63    28    29 2   
    64    28    30 1   
    65    30    31 1   
    66    31    32 1   
    67    31    72 1   
    68    31    73 1   
    69    32    33 2   
    70    32    34 1   
    71    33    36 1   
    72    33    74 1   
    73    34    35 2   
    74    34    75 1   
    75    35    36 1   
    76    36    37 1   
    77    37    38 1   
    78    37    76 1   
    79    37    77 1   
    80    38    39 1   
    81    38    78 1   
    82    38    79 1   
    83    39    80 1   
@<TRIPOS>SUBSTRUCTURE
     1 A1H         1 TEMP              0 ****  ****    0 ROOT
