@<TRIPOS>MOLECULE
A1H
   82    85     1     0     0
SMALL
No Charge or Current Charge


@<TRIPOS>ATOM
      1 CBF         22.1100    -2.9330   -14.2010 c3         1 A1H      -0.110600
      2 CBE         21.9450    -2.3160   -15.6090 c3         1 A1H       0.098300
      3 CBG         21.3270    -3.3200   -16.6050 c3         1 A1H      -0.110600
      4 NBC         21.1970    -1.0400   -15.5790 na         1 A1H       0.128800
      5 CBD         20.0010    -0.7920   -14.9110 cc         1 A1H      -0.138000
      6 NBB         21.6810     0.0600   -16.2610 nc         1 A1H      -0.538800
      7 CBA         20.7820     0.9870   -15.9990 cd         1 A1H       0.263900
      8 CAZ         19.7360     0.5230   -15.1760 cd         1 A1H      -0.262300
      9 CAY         18.5680     1.3340   -14.6900 c3         1 A1H       0.250900
     10 OAX         18.5740     1.2680   -13.2590 os         1 A1H      -0.431100
     11 C           17.5470     1.8580   -12.5750 c          1 A1H       0.582100
     12 O           16.5660     2.3260   -13.1410 o          1 A1H      -0.497000
     13 CA          17.5390     1.5050   -11.0550 c6         1 A1H       0.043700
     14 CB          18.9180     1.7630   -10.3700 c6         1 A1H      -0.073400
     15 CAS         19.9260     0.6080   -10.5220 c6         1 A1H      -0.075400
     16 CAT         19.2800    -0.6840   -10.0110 c6         1 A1H      -0.096400
     17 CAU         17.9680    -1.0000   -10.7590 c6         1 A1H       0.100000
     18 N           16.9740     0.1210   -10.8100 n          1 A1H      -0.397800
     19 CAH         15.6030    -0.1030   -11.1220 c          1 A1H       0.623100
     20 OAP         14.8260     0.8460   -11.1200 o          1 A1H      -0.604100
     21 CAG         15.1370    -1.5000   -11.6270 c3         1 A1H      -0.086400
     22 CAJ         13.6280    -1.8230   -11.3390 c6         1 A1H      -0.045700
     23 CAK         13.3290    -1.8320    -9.8090 c6         1 A1H      -0.073900
     24 CAL         11.8410    -2.1510    -9.5180 c6         1 A1H      -0.072900
     25 CAM         11.4210    -3.4960   -10.1560 c6         1 A1H      -0.075400
     26 CAN         11.7070    -3.5000   -11.6760 c6         1 A1H      -0.072900
     27 CAO         13.1930    -3.1800   -11.9700 c6         1 A1H      -0.073900
     28 CAF         15.4930    -1.5770   -13.1170 ca         1 A1H      -0.008300
     29 CAE         16.3880    -2.5590   -13.5800 ca         1 A1H      -0.218500
     30 CAA         14.9470    -0.6610   -14.0330 ca         1 A1H      -0.218500
     31 CAB         15.3000    -0.7070   -15.3980 ca         1 A1H       0.157100
     32 OBL         14.7920     0.2010   -16.3120 os         1 A1H      -0.322600
     33 CBM         13.9170     1.2760   -15.9270 c3         1 A1H       0.145400
     34 CAC         16.2110    -1.6840   -15.8550 ca         1 A1H       0.021100
     35 OBH         16.5320    -1.7170   -17.2020 os         1 A1H      -0.327100
     36 CBI         17.8860    -1.4940   -17.6340 c3         1 A1H       0.143900
     37 CAD         16.7480    -2.6270   -14.9440 ca         1 A1H       0.157100
     38 OBJ         17.5970    -3.6140   -15.4160 os         1 A1H      -0.322600
     39 CBK         18.1480    -4.6350   -14.5670 c3         1 A1H       0.145400
     40 HB9         22.7540    -3.8200   -14.2430 hc         1 A1H       0.048700
     41 HCA         22.5710    -2.2110   -13.5160 hc         1 A1H       0.048700
     42 HBF         21.1420    -3.2340   -13.7840 hc         1 A1H       0.048700
     43 HBE         22.9550    -2.0830   -15.9720 h1         1 A1H       0.081700
     44 HCC         21.2640    -2.8780   -17.6070 hc         1 A1H       0.048700
     45 HBG         21.9400    -4.2270   -16.6720 hc         1 A1H       0.048700
     46 HCB         20.3180    -3.6090   -16.2930 hc         1 A1H       0.048700
     47 HBD         19.4720    -1.5350   -14.3260 h4         1 A1H       0.166000
     48 HBA         20.9110     1.9810   -16.4110 h4         1 A1H       0.045100
     49 HAY         18.6600     2.3730   -15.0370 h1         1 A1H       0.068200
     50 HB8         17.6420     0.9110   -15.1010 h1         1 A1H       0.068200
     51 HA          16.8440     2.2400   -10.6250 h1         1 A1H       0.110700
     52 HB2         19.3570     2.6960   -10.7510 hc         1 A1H       0.058700
     53 HB1         18.7440     1.9330    -9.2990 hc         1 A1H       0.058700
     54 HB4         20.8330     0.8270    -9.9420 hc         1 A1H       0.049200
     55 HB3         20.2470     0.4880   -11.5640 hc         1 A1H       0.049200
     56 HB6         19.0730    -0.5920    -8.9360 hc         1 A1H       0.046200
     57 HB5         19.9800    -1.5220   -10.1220 hc         1 A1H       0.046200
     58 HB7         17.5300    -1.8670   -10.2500 h1         1 A1H       0.053200
     59 HAU         18.2080    -1.3010   -11.7890 h1         1 A1H       0.053200
     60 HAG         15.7330    -2.2690   -11.1330 hc         1 A1H       0.061700
     61 HAJ         13.0330    -1.0250   -11.8060 hc         1 A1H       0.071700
     62 HAL         13.9660    -2.5750    -9.3100 hc         1 A1H       0.041450
     63 HAK         13.5790    -0.8610    -9.3620 hc         1 A1H       0.041450
     64 HAN         11.2070    -1.3420    -9.9060 hc         1 A1H       0.040450
     65 HAM         11.6730    -2.1850    -8.4330 hc         1 A1H       0.040450
     66 HAP         10.3530    -3.6770    -9.9760 hc         1 A1H       0.037200
     67 HAO         11.9650    -4.3200    -9.6740 hc         1 A1H       0.037200
     68 HAR         11.0640    -2.7620   -12.1760 hc         1 A1H       0.040450
     69 HAQ         11.4460    -4.4790   -12.1010 hc         1 A1H       0.040450
     70 HAS         13.8270    -3.9910   -11.5850 hc         1 A1H       0.041450
     71 HAT         13.3400    -3.1620   -13.0590 hc         1 A1H       0.041450
     72 HAE         16.7930    -3.2700   -12.8670 ha         1 A1H       0.127000
     73 HAA         14.2550     0.0910   -13.6660 ha         1 A1H       0.127000
     74 HCI         13.6500     1.8800   -16.8040 h1         1 A1H       0.042200
     75 HBM         12.9900     0.8870   -15.4880 h1         1 A1H       0.042200
     76 HCH         14.4060     1.9340   -15.1970 h1         1 A1H       0.042200
     77 HCE         17.9470    -1.5400   -18.7280 h1         1 A1H       0.034700
     78 HBI         18.2320    -0.5030   -17.3160 h1         1 A1H       0.034700
     79 HCD         18.5700    -2.2460   -17.2270 h1         1 A1H       0.034700
     80 HCG         18.7820    -5.3130   -15.1510 h1         1 A1H       0.042200
     81 HBK         18.7640    -4.1930   -13.7740 h1         1 A1H       0.042200
     82 HCF         17.3500    -5.2310   -14.1050 h1         1 A1H       0.042200
@<TRIPOS>BOND
     1     1     2 1   
     2     1    40 1   
     3     1    41 1   
     4     1    42 1   
     5     2     3 1   
     6     2     4 1   
     7     2    43 1   
     8     3    44 1   
     9     3    45 1   
    10     3    46 1   
    11     4     5 1   
    12     4     6 1   
    13     5     8 2   
    14     5    47 1   
    15     6     7 2   
    16     7     8 1   
    17     7    48 1   
    18     8     9 1   
    19     9    10 1   
    20     9    49 1   
    21     9    50 1   
    22    10    11 1   
    23    11    12 2   
    24    11    13 1   
    25    13    14 1   
    26    13    18 1   
    27    13    51 1   
    28    14    15 1   
    29    14    52 1   
    30    14    53 1   
    31    15    16 1   
    32    15    54 1   
    33    15    55 1   
    34    16    17 1   
    35    16    56 1   
    36    16    57 1   
    37    17    18 1   
    38    17    58 1   
    39    17    59 1   
    40    18    19 1   
    41    19    20 2   
    42    19    21 1   
    43    21    22 1   
    44    21    28 1   
    45    21    60 1   
    46    22    23 1   
    47    22    27 1   
    48    22    61 1   
    49    23    24 1   
    50    23    62 1   
    51    23    63 1   
    52    24    25 1   
    53    24    64 1   
    54    24    65 1   
    55    25    26 1   
    56    25    66 1   
    57    25    67 1   
    58    26    27 1   
    59    26    68 1   
    60    26    69 1   
    61    27    70 1   
    62    27    71 1   
    63    28    29 ar  
    64    28    30 ar  
    65    29    37 ar  
    66    29    72 1   
    67    30    31 ar  
    68    30    73 1   
    69    31    32 1   
    70    31    34 ar  
    71    32    33 1   
    72    33    74 1   
    73    33    75 1   
    74    33    76 1   
    75    34    35 1   
    76    34    37 ar  
    77    35    36 1   
    78    36    77 1   
    79    36    78 1   
    80    36    79 1   
    81    37    38 1   
    82    38    39 1   
    83    39    80 1   
    84    39    81 1   
    85    39    82 1   
@<TRIPOS>SUBSTRUCTURE
     1 A1H         1 TEMP              0 ****  ****    0 ROOT
