@<TRIPOS>MOLECULE
A1H
   55    59     1     0     0
SMALL
No Charge or Current Charge


@<TRIPOS>ATOM
      1 C1         134.3890   -18.3180   172.4230 ca         1 A1H      -0.035300
      2 C2        -135.7120   -17.8440   172.5040 ca         1 A1H      -0.122000
      3 C3         136.5570   -17.8830   171.3830 ca         1 A1H      -0.093000
      4 C7        -135.0110   -17.4600   166.8560 ca         1 A1H      -0.168000
      5 C8         134.0020   -16.8620   166.0780 ca         1 A1H      -0.112000
      6 C9        -133.9940   -15.4650   165.9090 ca         1 A1H       0.260900
      7 C10        135.8790   -15.2330   167.2340 ca         1 A1H       0.256900
      8 C11       -134.7650   -18.8650   170.0730 ca         1 A1H      -0.079000
      9 C12        133.9110   -18.8320   171.1930 ca         1 A1H      -0.107500
     10 C13       -132.5430   -19.3270   171.0500 cc         1 A1H       0.307500
     11 C14        130.8690   -20.6260   171.2150 cd         1 A1H       0.394400
     12 C16       -131.6060   -18.7370   170.2250 cd         1 A1H      -0.142000
     13 C19        130.8330   -15.9430   167.7320 ca         1 A1H      -0.123000
     14 C20       -131.6470   -14.9080   168.2070 ca         1 A1H      -0.066000
     15 C21        132.4730   -12.5960   167.9970 c          1 A1H       0.540000
     16 C22       -132.9230   -12.7450   169.4650 c6         1 A1H       0.069600
     17 C24        132.4920   -16.3770   169.9580 ca         1 A1H      -0.079000
     18 O         -132.8040   -11.6640   167.2720 o          1 A1H      -0.525000
     19 N4         131.7030   -13.6520   167.5650 ns         1 A1H      -0.138000
     20 O1        -133.3020   -14.1140   169.7830 os         1 A1H      -0.328100
     21 C23        132.4830   -15.1280   169.3190 ca         1 A1H       0.069100
     22 C18       -130.8340   -17.1880   168.3860 ca         1 A1H      -0.096000
     23 C17        131.6510   -17.4260   169.5180 ca         1 A1H      -0.018000
     24 N3        -130.4960   -19.5750   170.3820 na         1 A1H      -0.157500
     25 N2         132.1170   -20.4830   171.6290 nc         1 A1H      -0.661000
     26 C         -133.4870   -18.2440   173.6510 c3         1 A1H      -0.045800
     27 C4         136.0890   -18.3960   170.1590 ca         1 A1H      -0.134300
     28 C5        -137.0170   -18.4680   168.9530 c3         1 A1H       0.281100
     29 N          137.0320   -17.1890   168.2230 nu         1 A1H      -0.972200
     30 C6        -135.9800   -16.6360   167.4610 ca         1 A1H       0.304000
     31 N1         134.9170   -14.6500   166.4710 nb         1 A1H      -0.647000
     32 H3        -136.0920   -17.4430   173.4410 ha         1 A1H       0.112000
     33 H4         137.5780   -17.5170   171.4660 ha         1 A1H       0.109000
     34 H8        -135.0400   -18.5390   166.9670 ha         1 A1H       0.120000
     35 H9         133.2370   -17.4690   165.6010 ha         1 A1H       0.117000
     36 H10       -133.2270   -14.9840   165.3040 h4         1 A1H       0.015100
     37 H11        136.6100   -14.5540   167.6710 h4         1 A1H       0.015100
     38 H12       -134.3930   -19.2690   169.1350 ha         1 A1H       0.120000
     39 H13        130.1820   -21.4190   171.4870 h5         1 A1H       0.056100
     40 H15       -128.8640   -18.2970   169.9570 h1         1 A1H       0.055367
     41 H16        128.4170   -19.9250   170.5260 h1         1 A1H       0.055367
     42 H14       -129.0320   -19.7120   168.8650 h1         1 A1H       0.055367
     43 H18        130.2040   -15.7910   166.8570 ha         1 A1H       0.126000
     44 H21       -132.0730   -12.4510   170.0960 h1         1 A1H       0.083200
     45 H20        133.7670   -12.0680   169.6500 h1         1 A1H       0.083200
     46 H22       -133.1210   -16.4890   170.8330 ha         1 A1H       0.142000
     47 H19        131.3230   -13.5940   166.6290 hn         1 A1H       0.182000
     48 H17       -130.2150   -17.9790   167.9770 ha         1 A1H       0.118000
     49 H2         133.2920   -19.2440   174.0550 hc         1 A1H       0.047033
     50 H         -132.5220   -17.7830   173.4080 hc         1 A1H       0.047033
     51 H1         133.9400   -17.6470   174.4520 hc         1 A1H       0.047033
     52 H6        -136.7140   -19.2920   168.2920 h1         1 A1H       0.055200
     53 H5         138.0310   -18.7030   169.3060 h1         1 A1H       0.055200
     54 H7        -137.7210   -16.5100   168.5530 hn         1 A1H       0.490000
     55 C15        129.1210   -19.3620   169.9000 c3         1 A1H       0.057900
@<TRIPOS>BOND
     1     1     2 ar  
     2     1     9 ar  
     3     1    26 1   
     4     2     3 ar  
     5     2    32 1   
     6     3    27 ar  
     7     3    33 1   
     8     4     5 ar  
     9     4    30 ar  
    10     4    34 1   
    11     5     6 ar  
    12     5    35 1   
    13     6    31 ar  
    14     6    36 1   
    15     7    30 ar  
    16     7    31 ar  
    17     7    37 1   
    18     8     9 ar  
    19     8    27 ar  
    20     8    38 1   
    21     9    10 1   
    22    10    12 2   
    23    10    25 1   
    24    11    24 1   
    25    11    25 2   
    26    11    39 1   
    27    12    23 1   
    28    12    24 1   
    29    13    14 ar  
    30    13    22 ar  
    31    13    43 1   
    32    14    19 1   
    33    14    21 ar  
    34    15    16 1   
    35    15    18 2   
    36    15    19 1   
    37    16    20 1   
    38    16    44 1   
    39    16    45 1   
    40    17    21 ar  
    41    17    23 ar  
    42    17    46 1   
    43    19    47 1   
    44    20    21 1   
    45    22    23 ar  
    46    22    48 1   
    47    24    55 1   
    48    26    49 1   
    49    26    50 1   
    50    26    51 1   
    51    27    28 1   
    52    28    29 1   
    53    28    52 1   
    54    28    53 1   
    55    29    30 1   
    56    29    54 1   
    57    40    55 1   
    58    41    55 1   
    59    42    55 1   
@<TRIPOS>SUBSTRUCTURE
     1 A1H         1 TEMP              0 ****  ****    0 ROOT
