@<TRIPOS>MOLECULE
A1H
   55    59     1     0     0
SMALL
abcg2


@<TRIPOS>ATOM
      1 C1        -134.5450   -18.8060   172.6010 ca         1 A1H      -0.035300
      2 C2        -135.8930   -18.4720   172.6730 ca         1 A1H      -0.122000
      3 C3        -136.6250   -18.1320   171.5430 ca         1 A1H      -0.093000
      4 C7        -135.0680   -17.8180   166.6010 ca         1 A1H      -0.168000
      5 C8        -134.2750   -17.7280   165.4680 ca         1 A1H      -0.112000
      6 C9        -133.8690   -16.4850   165.0100 ca         1 A1H       0.260900
      7 C10       -134.9800   -15.4380   166.7040 ca         1 A1H       0.256900
      8 C11       -134.6790   -18.4710   170.2100 ca         1 A1H      -0.079000
      9 C12       -133.9310   -18.8060   171.3360 ca         1 A1H      -0.107500
     10 C13       -132.5060   -19.1250   171.1670 cc         1 A1H       0.307500
     11 C14       -130.6700   -20.1920   171.3210 cd         1 A1H       0.394400
     12 C16       -131.5850   -18.4230   170.4180 cd         1 A1H      -0.142000
     13 C19       -131.4740   -15.9020   167.6260 ca         1 A1H      -0.123000
     14 C20       -132.0970   -14.8170   168.2210 ca         1 A1H      -0.066000
     15 C21       -132.6990   -12.4860   168.1460 c          1 A1H       0.540000
     16 C22       -132.7170   -12.5900   169.6600 c6         1 A1H       0.069600
     17 C24       -132.3300   -16.0750   170.2630 ca         1 A1H      -0.079000
     18 O         -132.9310   -11.4490   167.5590 o          1 A1H      -0.525000
     19 N4        -132.3570   -13.6380   167.5280 ns         1 A1H      -0.138000
     20 O1        -133.1560   -13.8570   170.1150 os         1 A1H      -0.328100
     21 C23       -132.5230   -14.9110   169.5450 ca         1 A1H       0.069100
     22 C18       -131.3000   -17.0780   168.3370 ca         1 A1H      -0.096000
     23 C17       -131.7270   -17.1800   169.6600 ca         1 A1H      -0.018000
     24 N3        -130.4140   -19.1290   170.5310 na         1 A1H      -0.157500
     25 N2        -131.9130   -20.2230   171.7220 nc         1 A1H      -0.661000
     26 C         -133.7890   -19.1150   173.8600 c3         1 A1H      -0.045800
     27 C4        -136.0230   -18.1230   170.2930 ca         1 A1H      -0.134300
     28 C5        -136.8060   -17.7320   169.0620 c3         1 A1H       0.281100
     29 N         -136.2630   -16.6010   168.3530 nu         1 A1H      -0.972200
     30 C6        -135.4550   -16.6440   167.2570 ca         1 A1H       0.304000
     31 N1        -134.2220   -15.3620   165.6280 nb         1 A1H      -0.647000
     32 H3        -136.3800   -18.4580   173.6410 ha         1 A1H       0.112000
     33 H4        -137.6710   -17.8640   171.6430 ha         1 A1H       0.109000
     34 H8        -135.3700   -18.7930   166.9600 ha         1 A1H       0.120000
     35 H9        -133.9670   -18.6260   164.9500 ha         1 A1H       0.117000
     36 H10       -133.2460   -16.3900   164.1280 h4         1 A1H       0.015100
     37 H11       -135.2470   -14.4990   167.1820 h4         1 A1H       0.015100
     38 H12       -134.1920   -18.4870   169.2420 ha         1 A1H       0.120000
     39 H13       -129.9040   -20.9110   171.5730 h5         1 A1H       0.056100
     40 H15       -128.9340   -17.7260   170.0820 h1         1 A1H       0.055367
     41 H16       -128.3540   -19.3370   170.5170 h1         1 A1H       0.055367
     42 H14       -129.0600   -19.0570   168.9210 h1         1 A1H       0.055367
     43 H18       -131.1500   -15.8360   166.5960 ha         1 A1H       0.126000
     44 H21       -131.7100   -12.3660   170.0370 h1         1 A1H       0.083200
     45 H20       -133.4040   -11.8480   170.0610 h1         1 A1H       0.083200
     46 H22       -132.6640   -16.1260   171.2920 ha         1 A1H       0.142000
     47 H19       -132.3450   -13.6610   166.5170 hn         1 A1H       0.182000
     48 H17       -130.8500   -17.9280   167.8410 ha         1 A1H       0.118000
     49 H2        -133.5400   -20.1730   173.9350 hc         1 A1H       0.047033
     50 H         -132.8480   -18.5660   173.9060 hc         1 A1H       0.047033
     51 H1        -134.3780   -18.8480   174.7370 hc         1 A1H       0.047033
     52 H6        -136.8890   -18.5770   168.3760 h1         1 A1H       0.055200
     53 H5        -137.8300   -17.4910   169.3560 h1         1 A1H       0.055200
     54 H7        -136.3540   -15.7090   168.8110 hn         1 A1H       0.490000
     55 C15       -129.1220   -18.7920   169.9750 c3         1 A1H       0.057900
@<TRIPOS>BOND
     1     1     2 ar  
     2     1     9 ar  
     3     1    26 1   
     4     2     3 ar  
     5     2    32 1   
     6     3    27 ar  
     7     3    33 1   
     8     4     5 ar  
     9     4    30 ar  
    10     4    34 1   
    11     5     6 ar  
    12     5    35 1   
    13     6    31 ar  
    14     6    36 1   
    15     7    30 ar  
    16     7    31 ar  
    17     7    37 1   
    18     8     9 ar  
    19     8    27 ar  
    20     8    38 1   
    21     9    10 1   
    22    10    12 2   
    23    10    25 1   
    24    11    24 1   
    25    11    25 2   
    26    11    39 1   
    27    12    23 1   
    28    12    24 1   
    29    13    14 ar  
    30    13    22 ar  
    31    13    43 1   
    32    14    19 1   
    33    14    21 ar  
    34    15    16 1   
    35    15    18 2   
    36    15    19 1   
    37    16    20 1   
    38    16    44 1   
    39    16    45 1   
    40    17    21 ar  
    41    17    23 ar  
    42    17    46 1   
    43    19    47 1   
    44    20    21 1   
    45    22    23 ar  
    46    22    48 1   
    47    24    55 1   
    48    26    49 1   
    49    26    50 1   
    50    26    51 1   
    51    27    28 1   
    52    28    29 1   
    53    28    52 1   
    54    28    53 1   
    55    29    30 1   
    56    29    54 1   
    57    40    55 1   
    58    41    55 1   
    59    42    55 1   
@<TRIPOS>SUBSTRUCTURE
     1 A1H         1 TEMP              0 ****  ****    0 ROOT
