@<TRIPOS>MOLECULE
A1H
   82    85     1     0     0
SMALL
abcg2


@<TRIPOS>ATOM
      1 CBF         23.2830    -1.1070   -14.5750 c3         1 A1H      -0.110600
      2 CBE         21.9730    -1.8650   -14.6970 c3         1 A1H       0.098300
      3 CBG         21.6720    -2.6880   -13.4510 c3         1 A1H      -0.110600
      4 NBC         20.8590    -0.9620   -14.9740 na         1 A1H       0.128800
      5 CBD         20.6800     0.2930   -14.5310 cc         1 A1H      -0.138000
      6 NBB         19.7820    -1.4350   -15.5980 nc         1 A1H      -0.538800
      7 CBA         18.8980    -0.4580   -15.5630 cd         1 A1H       0.263900
      8 CAZ         19.4060     0.6710   -14.9020 cd         1 A1H      -0.262300
      9 CAY         18.6590     1.9000   -14.5380 c3         1 A1H       0.250900
     10 OAX         17.9450     1.6610   -13.3070 os         1 A1H      -0.431100
     11 C           18.6350     1.7110   -12.1780 c          1 A1H       0.582100
     12 O           19.7300     2.2010   -12.0760 o          1 A1H      -0.497000
     13 CA          17.8540     1.0870   -11.0250 c6         1 A1H       0.043700
     14 CB          18.7010     0.9080    -9.7670 c6         1 A1H      -0.073400
     15 CAS         19.7220    -0.2160    -9.8930 c6         1 A1H      -0.075400
     16 CAT         19.0450    -1.4970   -10.3610 c6         1 A1H      -0.096400
     17 CAU         18.2450    -1.2490   -11.6300 c6         1 A1H       0.100000
     18 N           17.2730    -0.1810   -11.4390 n          1 A1H      -0.397800
     19 CAH         15.9440    -0.2480   -11.6970 c          1 A1H       0.623100
     20 OAP         15.2280     0.7400   -11.6120 o          1 A1H      -0.604100
     21 CAG         15.3510    -1.5920   -12.1220 c3         1 A1H      -0.086400
     22 CAJ         13.9040    -1.7440   -11.6180 c6         1 A1H      -0.045700
     23 CAK         13.8550    -1.7540   -10.0880 c6         1 A1H      -0.073900
     24 CAL         12.4320    -1.9280    -9.5650 c6         1 A1H      -0.072900
     25 CAM         11.7880    -3.1920   -10.1200 c6         1 A1H      -0.075400
     26 CAN         11.8390    -3.1990   -11.6430 c6         1 A1H      -0.072900
     27 CAO         13.2650    -3.0260   -12.1560 c6         1 A1H      -0.073900
     28 CAF         15.4640    -1.7180   -13.6280 ca         1 A1H      -0.008300
     29 CAE         16.1670    -2.7810   -14.1800 ca         1 A1H      -0.218500
     30 CAA         14.8290    -0.7970   -14.4560 ca         1 A1H      -0.218500
     31 CAB         14.8730    -0.9600   -15.8380 ca         1 A1H       0.157100
     32 OBL         14.2790    -0.1330   -16.7170 os         1 A1H      -0.322600
     33 CBM         13.5850     0.9910   -16.2150 c3         1 A1H       0.145400
     34 CAC         15.5610    -2.0410   -16.3990 ca         1 A1H       0.021100
     35 OBH         15.5650    -2.2260   -17.7460 os         1 A1H      -0.327100
     36 CBI         16.6590    -1.6240   -18.4220 c3         1 A1H       0.143900
     37 CAD         16.2270    -2.9390   -15.5640 ca         1 A1H       0.157100
     38 OBJ         16.8910    -3.9300   -16.1860 os         1 A1H      -0.322600
     39 CBK         17.7010    -4.7890   -15.4080 c3         1 A1H       0.145400
     40 HB9         24.1000    -1.8220   -14.4910 hc         1 A1H       0.048700
     41 HCA         23.4710    -0.4830   -15.4490 hc         1 A1H       0.048700
     42 HBF         23.3110    -0.4770   -13.6840 hc         1 A1H       0.048700
     43 HBE         22.0300    -2.5280   -15.5610 h1         1 A1H       0.081700
     44 HCC         20.7380    -3.2410   -13.5580 hc         1 A1H       0.048700
     45 HBG         22.4700    -3.4090   -13.2750 hc         1 A1H       0.048700
     46 HCB         21.5920    -2.0450   -12.5720 hc         1 A1H       0.048700
     47 HBD         21.4410     0.8300   -13.9890 h4         1 A1H       0.166000
     48 HBA         17.9220    -0.5790   -16.0100 h4         1 A1H       0.045100
     49 HAY         19.3040     2.7740   -14.4490 h1         1 A1H       0.068200
     50 HB8         17.8840     2.1220   -15.2690 h1         1 A1H       0.068200
     51 HA          17.0350     1.7730   -10.7980 h1         1 A1H       0.110700
     52 HB2         19.1840     1.8530    -9.5140 hc         1 A1H       0.058700
     53 HB1         18.0150     0.6830    -8.9460 hc         1 A1H       0.058700
     54 HB4         20.2160    -0.3740    -8.9330 hc         1 A1H       0.049200
     55 HB3         20.5050     0.0610   -10.6040 hc         1 A1H       0.049200
     56 HB6         18.3770    -1.8790    -9.5840 hc         1 A1H       0.046200
     57 HB5         19.7850    -2.2750   -10.5600 hc         1 A1H       0.046200
     58 HB7         17.7510    -2.1620   -11.9420 h1         1 A1H       0.053200
     59 HAU         18.9230    -0.9830   -12.4500 h1         1 A1H       0.053200
     60 HAG         15.9130    -2.4150   -11.6740 hc         1 A1H       0.061700
     61 HAJ         13.3140    -0.8940   -11.9800 hc         1 A1H       0.071700
     62 HAL         14.4750    -2.5810    -9.7200 hc         1 A1H       0.041450
     63 HAK         14.2850    -0.8380    -9.6780 hc         1 A1H       0.041450
     64 HAN         11.8320    -1.0580    -9.8530 hc         1 A1H       0.040450
     65 HAM         12.4390    -1.9500    -8.4720 hc         1 A1H       0.040450
     66 HAP         10.7560    -3.2800    -9.7710 hc         1 A1H       0.037200
     67 HAO         12.3230    -4.0680    -9.7380 hc         1 A1H       0.037200
     68 HAR         11.2160    -2.3850   -12.0300 hc         1 A1H       0.040450
     69 HAQ         11.4130    -4.1270   -12.0330 hc         1 A1H       0.040450
     70 HAS         13.8700    -3.8870   -11.8470 hc         1 A1H       0.041450
     71 HAT         13.2630    -3.0240   -13.2480 hc         1 A1H       0.041450
     72 HAE         16.6500    -3.4920   -13.5240 ha         1 A1H       0.127000
     73 HAA         14.2850     0.0270   -14.0150 ha         1 A1H       0.127000
     74 HCI         13.1990     1.5260   -17.0800 h1         1 A1H       0.042200
     75 HBM         12.7460     0.7030   -15.5770 h1         1 A1H       0.042200
     76 HCH         14.2420     1.6600   -15.6530 h1         1 A1H       0.042200
     77 HCE         16.5400    -1.8380   -19.4830 h1         1 A1H       0.034700
     78 HBI         16.6740    -0.5390   -18.2850 h1         1 A1H       0.034700
     79 HCD         17.6180    -2.0320   -18.0900 h1         1 A1H       0.034700
     80 HCG         18.1960    -5.4600   -16.1060 h1         1 A1H       0.042200
     81 HBK         18.4620    -4.2360   -14.8510 h1         1 A1H       0.042200
     82 HCF         17.1130    -5.3870   -14.7070 h1         1 A1H       0.042200
@<TRIPOS>BOND
     1     1     2 1   
     2     1    40 1   
     3     1    41 1   
     4     1    42 1   
     5     2     3 1   
     6     2     4 1   
     7     2    43 1   
     8     3    44 1   
     9     3    45 1   
    10     3    46 1   
    11     4     5 1   
    12     4     6 1   
    13     5     8 2   
    14     5    47 1   
    15     6     7 2   
    16     7     8 1   
    17     7    48 1   
    18     8     9 1   
    19     9    10 1   
    20     9    49 1   
    21     9    50 1   
    22    10    11 1   
    23    11    12 2   
    24    11    13 1   
    25    13    14 1   
    26    13    18 1   
    27    13    51 1   
    28    14    15 1   
    29    14    52 1   
    30    14    53 1   
    31    15    16 1   
    32    15    54 1   
    33    15    55 1   
    34    16    17 1   
    35    16    56 1   
    36    16    57 1   
    37    17    18 1   
    38    17    58 1   
    39    17    59 1   
    40    18    19 1   
    41    19    20 2   
    42    19    21 1   
    43    21    22 1   
    44    21    28 1   
    45    21    60 1   
    46    22    23 1   
    47    22    27 1   
    48    22    61 1   
    49    23    24 1   
    50    23    62 1   
    51    23    63 1   
    52    24    25 1   
    53    24    64 1   
    54    24    65 1   
    55    25    26 1   
    56    25    66 1   
    57    25    67 1   
    58    26    27 1   
    59    26    68 1   
    60    26    69 1   
    61    27    70 1   
    62    27    71 1   
    63    28    29 ar  
    64    28    30 ar  
    65    29    37 ar  
    66    29    72 1   
    67    30    31 ar  
    68    30    73 1   
    69    31    32 1   
    70    31    34 ar  
    71    32    33 1   
    72    33    74 1   
    73    33    75 1   
    74    33    76 1   
    75    34    35 1   
    76    34    37 ar  
    77    35    36 1   
    78    36    77 1   
    79    36    78 1   
    80    36    79 1   
    81    37    38 1   
    82    38    39 1   
    83    39    80 1   
    84    39    81 1   
    85    39    82 1   
@<TRIPOS>SUBSTRUCTURE
     1 A1H         1 TEMP              0 ****  ****    0 ROOT
