@<TRIPOS>MOLECULE
A1H
   94    97     1     0     0
SMALL
No Charge or Current Charge


@<TRIPOS>ATOM
      1 C4          28.6570   -16.6080    -5.8370 c5         1 A1H      -0.035500
      2 C5          27.6810   -16.6570    -7.0640 c5         1 A1H      -0.035000
      3 C6          28.2660   -15.7020    -8.1610 c6         1 A1H      -0.063400
      4 C7          27.8970   -17.4610    -4.7900 c5         1 A1H      -0.072400
      5 C8          26.4280   -16.9640    -4.9580 c5         1 A1H      -0.075400
      6 C10         27.4680   -18.0810    -7.6870 c3         1 A1H      -0.078100
      7 C13         23.9020   -15.4530    -6.0680 cx         1 A1H      -0.135700
      8 C15         23.5480   -15.5150    -9.1560 c3         1 A1H      -0.068400
      9 C17         21.6070   -16.9380   -10.2500 c3         1 A1H       0.183000
     10 C21         23.3050   -16.1100    -4.8410 cx         1 A1H      -0.107700
     11 C22         23.1560   -15.3230    -3.5410 c3         1 A1H      -0.035400
     12 C24         20.8450   -16.3020    -2.6090 c3         1 A1H       0.186000
     13 C26         20.0710   -15.0120    -2.9700 c3         1 A1H      -0.122100
     14 C28         32.0580   -18.5440    -5.7600 ce         1 A1H      -0.155000
     15 C1          29.6810   -16.1440    -8.6290 c6         1 A1H      -0.071400
     16 C12         24.9320   -16.1600    -6.9730 c3         1 A1H      -0.013700
     17 C14         24.9080   -15.5540    -8.4100 c3         1 A1H      -0.069400
     18 C16         22.9900   -16.9180    -9.5290 c3         1 A1H      -0.062400
     19 C18         21.1650   -18.3970   -10.5050 c3         1 A1H      -0.121100
     20 C19         21.6250   -16.1480   -11.5810 c3         1 A1H      -0.121100
     21 C2          30.6760   -16.3200    -7.4530 c6         1 A1H      -0.041200
     22 C23         22.3740   -16.0470    -2.4080 c3         1 A1H      -0.056400
     23 C25         20.2480   -16.9310    -1.3280 c3         1 A1H      -0.122100
     24 C29         32.6030   -19.6690    -5.2050 cf         1 A1H      -0.073200
     25 C3          30.0650   -17.0770    -6.2700 c2         1 A1H      -0.079400
     26 C30         34.0790   -20.0260    -5.4840 c6         1 A1H      -0.029200
     27 C31         34.8560   -20.4200    -4.2020 c6         1 A1H       0.175300
     28 C32         34.0850   -21.4960    -3.4040 c6         1 A1H      -0.107400
     29 C33         32.6500   -21.0360    -3.0540 c6         1 A1H       0.213500
     30 C34         31.8890   -20.6160    -4.3380 cf         1 A1H      -0.117200
     31 C35         30.6650   -21.1040    -4.6660 c2         1 A1H      -0.303000
     32 C38         22.4350   -15.8280    -6.0430 cx         1 A1H      -0.104400
     33 C9          26.3760   -16.1350    -6.3020 c5         1 A1H      -0.051700
     34 O20         20.6290   -16.3410    -9.3980 oh         1 A1H      -0.659000
     35 O27         20.6480   -17.2470    -3.6600 oh         1 A1H      -0.651000
     36 O36         32.0020   -22.0690    -2.3050 oh         1 A1H      -0.658000
     37 O37         35.1000   -19.2660    -3.3860 oh         1 A1H      -0.656000
     38 H4          28.7540   -15.5810    -5.4610 hc         1 A1H       0.052700
     39 H6B         28.3210   -14.6780    -7.7670 hc         1 A1H       0.040200
     40 H6A         27.6240   -15.6490    -9.0450 hc         1 A1H       0.040200
     41 H7A         27.9640   -18.5360    -4.9960 hc         1 A1H       0.042700
     42 H7B         28.2710   -17.3020    -3.7720 hc         1 A1H       0.042700
     43 H8A         25.7510   -17.8250    -4.9810 hc         1 A1H       0.043200
     44 H8B         26.1220   -16.3470    -4.1060 hc         1 A1H       0.043200
     45 H10C        26.9330   -18.0210    -8.6410 hc         1 A1H       0.033367
     46 H10A        28.4180   -18.5940    -7.8790 hc         1 A1H       0.033367
     47 H10B        26.8770   -18.7410    -7.0420 hc         1 A1H       0.033367
     48 H13         24.1170   -14.3900    -5.9820 hc         1 A1H       0.065700
     49 H15B        22.8130   -14.9490    -8.5760 hc         1 A1H       0.046200
     50 H15A        23.7020   -14.9440   -10.0800 hc         1 A1H       0.046200
     51 H21         23.5480   -17.1550    -4.6680 hc         1 A1H       0.075700
     52 H22A        24.1620   -15.1100    -3.1580 hc         1 A1H       0.035200
     53 H22B        22.7080   -14.3410    -3.7350 hc         1 A1H       0.035200
     54 H26B        18.9910   -15.2010    -3.0210 hc         1 A1H       0.039033
     55 H26A        20.2410   -14.2350    -2.2140 hc         1 A1H       0.039033
     56 H26C        20.3830   -14.6150    -3.9420 hc         1 A1H       0.039033
     57 H28         32.7050   -17.9420    -6.3970 ha         1 A1H       0.171000
     58 H1B         30.0800   -15.4060    -9.3380 hc         1 A1H       0.039200
     59 H1A         29.6110   -17.0850    -9.1900 hc         1 A1H       0.039200
     60 H11         30.1950   -18.4900    -4.6800 ha         1 A1H       0.175000
     61 H12         24.6370   -17.2120    -7.0700 hc         1 A1H       0.049700
     62 H14B        25.3140   -14.5360    -8.3710 hc         1 A1H       0.036200
     63 H14A        25.5740   -16.1410    -9.0470 hc         1 A1H       0.036200
     64 H16A        23.7250   -17.4220   -10.1680 hc         1 A1H       0.043200
     65 H16B        22.9150   -17.5270    -8.6220 hc         1 A1H       0.043200
     66 H18C        20.1800   -18.4350   -10.9860 hc         1 A1H       0.039533
     67 H18B        21.8800   -18.9090   -11.1610 hc         1 A1H       0.039533
     68 H18A        21.1060   -18.9600    -9.5650 hc         1 A1H       0.039533
     69 H19C        20.6680   -16.2470   -12.1080 hc         1 A1H       0.039533
     70 H19A        21.8000   -15.0790   -11.4110 hc         1 A1H       0.039533
     71 H19B        22.4150   -16.5230   -12.2430 hc         1 A1H       0.039533
     72 H2A         31.5750   -16.8150    -7.8380 hc         1 A1H       0.045700
     73 H2B         30.9970   -15.3300    -7.1040 hc         1 A1H       0.045700
     74 H23A        22.8700   -17.0040    -2.2020 hc         1 A1H       0.042700
     75 H23B        22.4980   -15.4490    -1.4970 hc         1 A1H       0.042700
     76 H25B        19.1820   -17.1550    -1.4550 hc         1 A1H       0.039033
     77 H25C        20.7630   -17.8660    -1.0740 hc         1 A1H       0.039033
     78 H25A        20.3490   -16.2470    -0.4760 hc         1 A1H       0.039033
     79 H30A        34.1050   -20.8660    -6.1910 hc         1 A1H       0.056200
     80 H30B        34.5960   -19.1960    -5.9840 hc         1 A1H       0.056200
     81 H31         35.8210   -20.8480    -4.5120 h1         1 A1H       0.032700
     82 H33         32.7320   -20.1400    -2.4200 h1         1 A1H       0.046700
     83 H35A        30.1340   -21.8220    -4.0430 ha         1 A1H       0.168500
     84 H35B        30.1740   -20.8040    -5.5920 ha         1 A1H       0.168500
     85 H38B        21.7120   -15.0200    -5.9790 hc         1 A1H       0.074200
     86 H38A        22.1010   -16.6860    -6.6180 hc         1 A1H       0.074200
     87 H9          26.5370   -15.0770    -6.0580 hc         1 A1H       0.042700
     88 H20         19.7770   -16.3690    -9.8810 ho         1 A1H       0.436000
     89 H27         19.6810   -17.3270    -3.7920 ho         1 A1H       0.436000
     90 H36         31.1260   -21.7070    -2.0500 ho         1 A1H       0.446000
     91 H37         35.7290   -19.5440    -2.6850 ho         1 A1H       0.439000
     92 H1          34.0360   -22.4190    -3.9980 hc         1 A1H       0.056700
     93 H2          34.6340   -21.7480    -2.4870 hc         1 A1H       0.056700
     94 C11         30.6910   -18.0390    -5.5360 ce         1 A1H      -0.191000
@<TRIPOS>BOND
     1     1     2 1   
     2     1     4 1   
     3     1    25 1   
     4     1    38 1   
     5     2     3 1   
     6     2     6 1   
     7     2    33 1   
     8     3    15 1   
     9     3    39 1   
    10     3    40 1   
    11     4     5 1   
    12     4    41 1   
    13     4    42 1   
    14     5    33 1   
    15     5    43 1   
    16     5    44 1   
    17     6    45 1   
    18     6    46 1   
    19     6    47 1   
    20     7    10 1   
    21     7    16 1   
    22     7    32 1   
    23     7    48 1   
    24     8    17 1   
    25     8    18 1   
    26     8    49 1   
    27     8    50 1   
    28     9    18 1   
    29     9    19 1   
    30     9    20 1   
    31     9    34 1   
    32    10    11 1   
    33    10    32 1   
    34    10    51 1   
    35    11    22 1   
    36    11    52 1   
    37    11    53 1   
    38    12    13 1   
    39    12    22 1   
    40    12    23 1   
    41    12    35 1   
    42    13    54 1   
    43    13    55 1   
    44    13    56 1   
    45    14    24 2   
    46    14    57 1   
    47    14    94 1   
    48    15    21 1   
    49    15    58 1   
    50    15    59 1   
    51    16    17 1   
    52    16    33 1   
    53    16    61 1   
    54    17    62 1   
    55    17    63 1   
    56    18    64 1   
    57    18    65 1   
    58    19    66 1   
    59    19    67 1   
    60    19    68 1   
    61    20    69 1   
    62    20    70 1   
    63    20    71 1   
    64    21    25 1   
    65    21    72 1   
    66    21    73 1   
    67    22    74 1   
    68    22    75 1   
    69    23    76 1   
    70    23    77 1   
    71    23    78 1   
    72    24    26 1   
    73    24    30 1   
    74    25    94 2   
    75    26    27 1   
    76    26    79 1   
    77    26    80 1   
    78    27    28 1   
    79    27    37 1   
    80    27    81 1   
    81    28    29 1   
    82    28    92 1   
    83    28    93 1   
    84    29    30 1   
    85    29    36 1   
    86    29    82 1   
    87    30    31 2   
    88    31    83 1   
    89    31    84 1   
    90    32    85 1   
    91    32    86 1   
    92    33    87 1   
    93    34    88 1   
    94    35    89 1   
    95    36    90 1   
    96    37    91 1   
    97    60    94 1   
@<TRIPOS>SUBSTRUCTURE
     1 A1H         1 TEMP              0 ****  ****    0 ROOT
