@<TRIPOS>MOLECULE
A1H
   53    56     1     0     0
SMALL
No Charge or Current Charge


@<TRIPOS>ATOM
      1 C4          -8.3230   -15.4770    18.1840 c6         1 A1H       0.239500
      2 C14        -10.5780   -15.8650    19.5170 c5         1 A1H       0.151700
      3 C5          -7.9830   -16.1130    16.8100 c6         1 A1H      -0.096400
      4 C6          -9.1990   -16.0990    15.8650 c6         1 A1H      -0.075400
      5 C7          -9.7050   -14.6510    15.7200 c6         1 A1H      -0.089400
      6 C8         -10.0450   -13.9710    17.0810 c6         1 A1H       0.157500
      7 C9         -11.4340   -14.4480    17.6210 c          1 A1H       0.574000
      8 C10        -12.8300   -16.3090    18.6060 c5         1 A1H       0.018700
      9 C12        -12.3530   -17.5430    19.4120 c5         1 A1H      -0.082400
     10 C13        -11.3900   -16.8630    20.4160 c5         1 A1H      -0.092400
     11 N1         -11.5180   -15.6350    18.3820 n          1 A1H      -0.384800
     12 C3          -9.1990   -16.4270    19.0740 c3         1 A1H      -0.049500
     13 N3          -8.8800   -14.0950    18.0350 n3         1 A1H      -0.774500
     14 C2          -8.3790   -16.8840    20.2770 c2         1 A1H      -0.227200
     15 O1         -12.4370   -13.7760    17.4010 o          1 A1H      -0.575000
     16 S1          -7.7790   -12.7970    18.0700 sy         1 A1H       1.175600
     17 O3          -8.5910   -11.6050    18.3380 o          1 A1H      -0.534500
     18 O4          -6.9140   -12.9040    16.8920 o          1 A1H      -0.534500
     19 C15         -6.8570   -13.1420    19.5740 ca         1 A1H      -0.257500
     20 C16         -5.4860   -13.4750    19.5200 ca         1 A1H      -0.010000
     21 C17         -4.7950   -13.7830    20.7040 ca         1 A1H       0.100000
     22 Cl1         -3.0870   -14.2020    20.6380 cl         1 A1H      -0.175500
     23 C18         -5.4620   -13.7660    21.9400 ca         1 A1H      -0.053000
     24 C19         -6.8270   -13.4380    21.9940 ca         1 A1H       0.100000
     25 Cl2         -7.6690   -13.4330    23.5380 cl         1 A1H      -0.175500
     26 C20         -7.5260   -13.1250    20.8160 ca         1 A1H      -0.010000
     27 H5          -7.3580   -15.4210    18.7060 h1         1 A1H       0.058700
     28 H20        -10.4000   -14.9320    20.0700 h1         1 A1H       0.068700
     29 H7          -7.6210   -17.1410    16.9470 hc         1 A1H       0.059700
     30 H6          -7.1530   -15.5640    16.3470 hc         1 A1H       0.059700
     31 H9          -9.9990   -16.7480    16.2470 hc         1 A1H       0.048200
     32 H8          -8.9150   -16.4980    14.8820 hc         1 A1H       0.048200
     33 H10         -8.9390   -14.0550    15.2050 hc         1 A1H       0.065700
     34 H11        -10.5870   -14.6300    15.0650 hc         1 A1H       0.065700
     35 H12        -10.2350   -12.9090    16.8680 h1         1 A1H       0.116700
     36 H13        -13.2900   -16.6080    17.6550 h1         1 A1H       0.080700
     37 H16        -13.1670   -18.0870    19.9040 hc         1 A1H       0.056700
     38 H17        -11.8230   -18.2590    18.7710 hc         1 A1H       0.056700
     39 H19        -10.7690   -17.5950    20.9440 hc         1 A1H       0.065700
     40 H18        -11.9410   -16.3220    21.1940 hc         1 A1H       0.065700
     41 H15        -15.8710   -15.6740    19.9810 hn         1 A1H       0.314000
     42 H14        -15.2800   -16.9800    18.9720 hn         1 A1H       0.314000
     43 H4          -9.4210   -17.3270    18.4880 hc         1 A1H       0.066700
     44 H1          -7.9970   -18.9010    19.7030 ha         1 A1H       0.166500
     45 H2          -7.2820   -18.3700    21.3320 ha         1 A1H       0.166500
     46 H3          -8.2240   -16.1150    21.0380 ha         1 A1H       0.173000
     47 H21         -4.9550   -13.5030    18.5700 ha         1 A1H       0.159500
     48 H22         -4.9260   -14.0100    22.8520 ha         1 A1H       0.147000
     49 H23         -8.5860   -12.8840    20.8680 ha         1 A1H       0.159500
     50 C11        -13.9060   -15.5200    19.4350 c          1 A1H       0.602100
     51 N2         -15.1230   -16.1120    19.4640 nt         1 A1H      -0.605000
     52 C1          -7.8620   -18.1120    20.4440 c2         1 A1H      -0.304000
     53 O2         -13.7420   -14.4750    20.0460 o          1 A1H      -0.597100
@<TRIPOS>BOND
     1     1     3 1   
     2     1    12 1   
     3     1    13 1   
     4     1    27 1   
     5     2    10 1   
     6     2    11 1   
     7     2    12 1   
     8     2    28 1   
     9     3     4 1   
    10     3    29 1   
    11     3    30 1   
    12     4     5 1   
    13     4    31 1   
    14     4    32 1   
    15     5     6 1   
    16     5    33 1   
    17     5    34 1   
    18     6     7 1   
    19     6    13 1   
    20     6    35 1   
    21     7    11 1   
    22     7    15 2   
    23     8     9 1   
    24     8    11 1   
    25     8    36 1   
    26     8    50 1   
    27     9    10 1   
    28     9    37 1   
    29     9    38 1   
    30    10    39 1   
    31    10    40 1   
    32    12    14 1   
    33    12    43 1   
    34    13    16 1   
    35    14    46 1   
    36    14    52 2   
    37    16    17 2   
    38    16    18 2   
    39    16    19 1   
    40    19    20 ar  
    41    19    26 ar  
    42    20    21 ar  
    43    20    47 1   
    44    21    22 1   
    45    21    23 ar  
    46    23    24 ar  
    47    23    48 1   
    48    24    25 1   
    49    24    26 ar  
    50    26    49 1   
    51    41    51 1   
    52    42    51 1   
    53    44    52 1   
    54    45    52 1   
    55    50    51 1   
    56    50    53 2   
@<TRIPOS>SUBSTRUCTURE
     1 A1H         1 TEMP              0 ****  ****    0 ROOT
