@<TRIPOS>MOLECULE
A1H
   79    82     1     0     0
SMALL
No Charge or Current Charge


@<TRIPOS>ATOM
      1 CBF          8.7670    19.6130    15.0440 c3         1 A1H      -0.110100
      2 CBE          8.2540    19.9400    16.4600 c3         1 A1H       0.088600
      3 NBC          8.4870    18.8480    17.4200 na         1 A1H       0.129800
      4 CBD          7.6690    17.7390    17.6130 cc         1 A1H      -0.131000
      5 NBB          9.6140    18.8500    18.2140 nc         1 A1H      -0.533800
      6 CBA          9.4920    17.7270    18.8930 cd         1 A1H       0.256900
      7 CAZ          8.3230    17.0070    18.5650 cd         1 A1H      -0.258300
      8 CAY          7.9160    15.6820    19.1470 c3         1 A1H       0.251900
      9 OAX          8.2330    15.7040    20.5440 os         1 A1H      -0.433100
     10 C            8.0790    14.5500    21.2630 c          1 A1H       0.578100
     11 O            7.8230    13.4770    20.7300 o          1 A1H      -0.496000
     12 CA           8.6980    14.6360    22.6910 c6         1 A1H       0.043700
     13 CB           8.1180    15.8250    23.5190 c6         1 A1H      -0.073400
     14 CAS          8.8160    17.1720    23.2620 c6         1 A1H      -0.077400
     15 CAT         10.3160    17.0060    23.5190 c6         1 A1H      -0.092400
     16 CAU         10.9280    15.9040    22.6290 c6         1 A1H       0.102000
     17 N           10.2120    14.5880    22.6410 n          1 A1H      -0.392800
     18 CAH         10.8250    13.3990    22.1550 c          1 A1H       0.621100
     19 OAP         10.2210    12.3350    22.2430 o          1 A1H      -0.609100
     20 CAG         12.1680    13.4780    21.3700 c3         1 A1H      -0.086400
     21 CAJ         13.0660    12.1980    21.5030 c6         1 A1H      -0.043700
     22 CAK         13.4700    11.9370    22.9860 c6         1 A1H      -0.073900
     23 CAL         14.3580    10.6760    23.1250 c6         1 A1H      -0.072400
     24 CAM         15.6180    10.7770    22.2340 c6         1 A1H      -0.076400
     25 CAN         15.2330    11.0300    20.7570 c6         1 A1H      -0.072400
     26 CAO         14.3440    12.2900    20.6150 c6         1 A1H      -0.073900
     27 CAF         11.8210    13.8210    19.9140 ca         1 A1H      -0.009300
     28 CAE         11.0380    12.9470    19.1400 ca         1 A1H      -0.216500
     29 CAA         12.2800    15.0220    19.3420 ca         1 A1H      -0.216500
     30 CAB         11.9620    15.3560    18.0070 ca         1 A1H       0.151600
     31 OBI         12.4410    16.5140    17.4180 os         1 A1H      -0.325100
     32 CBJ         13.2230    17.4860    18.1340 c3         1 A1H       0.144400
     33 CAC         11.1590    14.4770    17.2400 ca         1 A1H       0.026100
     34 OBG         10.8340    14.7650    15.9250 os         1 A1H      -0.327100
     35 CBH         10.0120    15.9030    15.6140 c3         1 A1H       0.146900
     36 CAD         10.7040    13.2670    17.8070 ca         1 A1H       0.151600
     37 OBK          9.9170    12.4300    17.0330 os         1 A1H      -0.325100
     38 CBL          9.3480    11.2130    17.5460 c3         1 A1H       0.144400
     39 HCB          8.5720    20.4510    14.3650 hc         1 A1H       0.050367
     40 HBF          9.8470    19.4250    15.0590 hc         1 A1H       0.050367
     41 HCA          8.2660    18.7220    14.6470 hc         1 A1H       0.050367
     42 HBE          8.7500    20.8470    16.8270 h1         1 A1H       0.060200
     43 HB9          7.1760    20.1410    16.4190 h1         1 A1H       0.060200
     44 HBD          6.7460    17.5730    17.0700 h4         1 A1H       0.161000
     45 HBA         10.2590    17.4560    19.6090 h4         1 A1H       0.042100
     46 HAY          6.8420    15.5170    18.9900 h1         1 A1H       0.066200
     47 HB8          8.4690    14.8860    18.6300 h1         1 A1H       0.066200
     48 HA           8.3430    13.7190    23.1820 h1         1 A1H       0.110700
     49 HB2          7.0390    15.9200    23.3330 hc         1 A1H       0.061700
     50 HB1          8.2140    15.5820    24.5860 hc         1 A1H       0.061700
     51 HB4          8.4040    17.9400    23.9320 hc         1 A1H       0.049700
     52 HB3          8.6390    17.5270    22.2380 hc         1 A1H       0.049700
     53 HB6         10.4830    16.7540    24.5750 hc         1 A1H       0.048200
     54 HB5         10.8360    17.9570    23.3400 hc         1 A1H       0.048200
     55 HB7         11.9600    15.7670    22.9780 h1         1 A1H       0.051200
     56 HAU         10.9710    16.2670    21.5920 h1         1 A1H       0.051200
     57 HAG         12.7500    14.3200    21.7480 hc         1 A1H       0.062700
     58 HAJ         12.4670    11.3450    21.1520 hc         1 A1H       0.071700
     59 HAL         14.0090    12.8080    23.3840 hc         1 A1H       0.041450
     60 HAK         12.5770    11.8140    23.6130 hc         1 A1H       0.041450
     61 HAN         13.7790     9.7830    22.8480 hc         1 A1H       0.039950
     62 HAM         14.6540    10.5430    24.1740 hc         1 A1H       0.039950
     63 HAP         16.2070     9.8530    22.3130 hc         1 A1H       0.037200
     64 HAO         16.2620    11.5910    22.5930 hc         1 A1H       0.037200
     65 HAR         14.7000    10.1550    20.3580 hc         1 A1H       0.039950
     66 HAQ         16.1410    11.1450    20.1500 hc         1 A1H       0.039950
     67 HAS         14.9240    13.1820    20.8880 hc         1 A1H       0.041450
     68 HAT         14.0690    12.4100    19.5590 hc         1 A1H       0.041450
     69 HAE         10.6900    12.0230    19.5900 ha         1 A1H       0.128000
     70 HAA         12.8960    15.6830    19.9430 ha         1 A1H       0.128000
     71 HCF         13.4740    18.3280    17.4780 h1         1 A1H       0.042533
     72 HBJ         12.6650    17.8790    18.9930 h1         1 A1H       0.042533
     73 HCE         14.1610    17.0430    18.4940 h1         1 A1H       0.042533
     74 HCD          9.8680    15.9810    14.5290 h1         1 A1H       0.034033
     75 HBH          9.0250    15.7980    16.0790 h1         1 A1H       0.034033
     76 HCC         10.4630    16.8390    15.9630 h1         1 A1H       0.034033
     77 HBL          8.7500    10.7170    16.7710 h1         1 A1H       0.042533
     78 HCG         10.1350    10.5170    17.8650 h1         1 A1H       0.042533
     79 HCH          8.6920    11.4200    18.4010 h1         1 A1H       0.042533
@<TRIPOS>BOND
     1     1     2 1   
     2     1    39 1   
     3     1    40 1   
     4     1    41 1   
     5     2     3 1   
     6     2    42 1   
     7     2    43 1   
     8     3     4 1   
     9     3     5 1   
    10     4     7 2   
    11     4    44 1   
    12     5     6 2   
    13     6     7 1   
    14     6    45 1   
    15     7     8 1   
    16     8     9 1   
    17     8    46 1   
    18     8    47 1   
    19     9    10 1   
    20    10    11 2   
    21    10    12 1   
    22    12    13 1   
    23    12    17 1   
    24    12    48 1   
    25    13    14 1   
    26    13    49 1   
    27    13    50 1   
    28    14    15 1   
    29    14    51 1   
    30    14    52 1   
    31    15    16 1   
    32    15    53 1   
    33    15    54 1   
    34    16    17 1   
    35    16    55 1   
    36    16    56 1   
    37    17    18 1   
    38    18    19 2   
    39    18    20 1   
    40    20    21 1   
    41    20    27 1   
    42    20    57 1   
    43    21    22 1   
    44    21    26 1   
    45    21    58 1   
    46    22    23 1   
    47    22    59 1   
    48    22    60 1   
    49    23    24 1   
    50    23    61 1   
    51    23    62 1   
    52    24    25 1   
    53    24    63 1   
    54    24    64 1   
    55    25    26 1   
    56    25    65 1   
    57    25    66 1   
    58    26    67 1   
    59    26    68 1   
    60    27    28 ar  
    61    27    29 ar  
    62    28    36 ar  
    63    28    69 1   
    64    29    30 ar  
    65    29    70 1   
    66    30    31 1   
    67    30    33 ar  
    68    31    32 1   
    69    32    71 1   
    70    32    72 1   
    71    32    73 1   
    72    33    34 1   
    73    33    36 ar  
    74    34    35 1   
    75    35    74 1   
    76    35    75 1   
    77    35    76 1   
    78    36    37 1   
    79    37    38 1   
    80    38    77 1   
    81    38    78 1   
    82    38    79 1   
@<TRIPOS>SUBSTRUCTURE
     1 A1H         1 TEMP              0 ****  ****    0 ROOT
