@<TRIPOS>MOLECULE
A1H
   72    75     1     0     0
SMALL
abcg2


@<TRIPOS>ATOM
      1 CLBE        -9.4020    17.9020   -15.0670 cl         1 A1H      -0.120000
      2 CBA        -10.7280    16.9180   -14.6090 cc         1 A1H       0.375000
      3 NBB        -11.9790    17.4200   -14.6840 nc         1 A1H      -0.623000
      4 CBC        -12.8320    16.5310   -14.2770 cd         1 A1H       0.392300
      5 SBD        -12.1520    15.0490   -13.7690 ss         1 A1H       0.083600
      6 CAZ        -10.5880    15.6430   -14.1520 cd         1 A1H      -0.293300
      7 CAY         -9.3310    14.8670   -13.9710 c3         1 A1H       0.244900
      8 OAX         -8.6200    15.2800   -12.7990 os         1 A1H      -0.415100
      9 C           -9.1370    14.9460   -11.6240 c          1 A1H       0.574100
     10 O          -10.1180    14.2590   -11.4990 o          1 A1H      -0.493000
     11 CA          -8.3190    15.4790   -10.4540 c6         1 A1H       0.046700
     12 CB          -9.1850    15.7400    -9.2230 c6         1 A1H      -0.075400
     13 CAS        -10.0540    16.9780    -9.3950 c6         1 A1H      -0.077400
     14 CAT         -9.1850    18.1690    -9.7720 c6         1 A1H      -0.096400
     15 CAU         -8.3480    17.8630   -11.0050 c6         1 A1H       0.103000
     16 N           -7.5530    16.6570   -10.8160 n          1 A1H      -0.395800
     17 CAH         -6.2260    16.5140   -11.0660 c          1 A1H       0.622100
     18 OAP         -5.6690    15.4320   -10.9400 o          1 A1H      -0.609100
     19 CAG         -5.4350    17.7220   -11.5650 c3         1 A1H      -0.085400
     20 CAJ         -3.9820    17.6960   -11.0630 c6         1 A1H      -0.045700
     21 CAK         -3.9330    17.8200    -9.5380 c6         1 A1H      -0.073900
     22 CAL         -2.5000    17.8400    -9.0140 c6         1 A1H      -0.072900
     23 CAM         -1.6880    18.9560    -9.6610 c6         1 A1H      -0.076400
     24 CAN         -1.7330    18.8460   -11.1800 c6         1 A1H      -0.072900
     25 CAO         -3.1690    18.8270   -11.6960 c6         1 A1H      -0.073900
     26 CAF         -5.5500    17.7390   -13.0770 ca         1 A1H      -0.009300
     27 CAE         -5.0480    16.6800   -13.8270 ca         1 A1H      -0.216000
     28 CAA         -6.1470    18.8210   -13.7080 ca         1 A1H      -0.216000
     29 CAB         -6.2500    18.8500   -15.0980 ca         1 A1H       0.153100
     30 OBH         -6.8350    19.8420   -15.7920 os         1 A1H      -0.325100
     31 CBI         -7.3400    20.9560   -15.0850 c3         1 A1H       0.143900
     32 CAC         -5.7290    17.8020   -15.8590 ca         1 A1H       0.029100
     33 OBF         -5.7720    17.8500   -17.2170 os         1 A1H      -0.328100
     34 CBG         -6.9320    17.2730   -17.7990 c3         1 A1H       0.148900
     35 CAD         -5.1330    16.7120   -15.2160 ca         1 A1H       0.153100
     36 OBJ         -4.6640    15.7470   -16.0260 os         1 A1H      -0.325100
     37 CBK         -4.0200    14.6340   -15.4410 c3         1 A1H       0.143900
     38 HBC        -13.9000    16.6980   -14.2470 h5         1 A1H       0.058100
     39 HAY         -9.5240    13.7940   -13.9510 h1         1 A1H       0.078700
     40 HB8         -8.6490    15.0690   -14.7950 h1         1 A1H       0.078700
     41 HA          -7.6110    14.6810   -10.2160 h1         1 A1H       0.113700
     42 HB2         -9.7860    14.8570    -9.0050 hc         1 A1H       0.062700
     43 HB1         -8.5120    15.8810    -8.3740 hc         1 A1H       0.062700
     44 HB4        -10.6030    17.1790    -8.4740 hc         1 A1H       0.049200
     45 HB3        -10.8030    16.8080   -10.1750 hc         1 A1H       0.049200
     46 HB6         -8.5210    18.4250    -8.9410 hc         1 A1H       0.049700
     47 HB5         -9.7980    19.0490    -9.9770 hc         1 A1H       0.049700
     48 HB7         -7.7080    18.7090   -11.2280 h1         1 A1H       0.053700
     49 HAU         -9.0030    17.7380   -11.8740 h1         1 A1H       0.053700
     50 HAG         -5.8660    18.6510   -11.1880 hc         1 A1H       0.062700
     51 HAJ         -3.5210    16.7450   -11.3500 hc         1 A1H       0.071700
     52 HAL         -4.4370    18.7480    -9.2430 hc         1 A1H       0.041200
     53 HAK         -4.4840    17.0040    -9.0660 hc         1 A1H       0.041200
     54 HAN         -2.0260    16.8770    -9.2280 hc         1 A1H       0.040450
     55 HAM         -2.5030    17.9500    -7.9270 hc         1 A1H       0.040450
     56 HAP         -0.6540    18.9310    -9.3060 hc         1 A1H       0.037700
     57 HAO         -2.0990    19.9250    -9.3580 hc         1 A1H       0.037700
     58 HAR         -1.2260    17.9260   -11.4930 hc         1 A1H       0.040450
     59 HAQ         -1.1850    19.6720   -11.6380 hc         1 A1H       0.040450
     60 HAS         -3.6480    19.7870   -11.4650 hc         1 A1H       0.041200
     61 HAT         -3.1690    18.7350   -12.7840 hc         1 A1H       0.041200
     62 HAE         -4.5880    15.8440   -13.3200 ha         1 A1H       0.127500
     63 HAA         -6.5290    19.6380   -13.1100 ha         1 A1H       0.127500
     64 HCC         -7.7510    21.6330   -15.8310 h1         1 A1H       0.042700
     65 HBI         -8.1360    20.6780   -14.3890 h1         1 A1H       0.042700
     66 HCB         -6.5560    21.4790   -14.5310 h1         1 A1H       0.042700
     67 HCA         -6.7780    17.2630   -18.8770 h1         1 A1H       0.033367
     68 HBG         -7.0920    16.2460   -17.4610 h1         1 A1H       0.033367
     69 HB9         -7.8290    17.8560   -17.5810 h1         1 A1H       0.033367
     70 HCE         -3.7120    13.9900   -16.2620 h1         1 A1H       0.042700
     71 HBK         -3.1350    14.9260   -14.8710 h1         1 A1H       0.042700
     72 HCD         -4.6900    14.0700   -14.7860 h1         1 A1H       0.042700
@<TRIPOS>BOND
     1     1     2 1   
     2     2     3 1   
     3     2     6 2   
     4     3     4 2   
     5     4     5 1   
     6     4    38 1   
     7     5     6 1   
     8     6     7 1   
     9     7     8 1   
    10     7    39 1   
    11     7    40 1   
    12     8     9 1   
    13     9    10 2   
    14     9    11 1   
    15    11    12 1   
    16    11    16 1   
    17    11    41 1   
    18    12    13 1   
    19    12    42 1   
    20    12    43 1   
    21    13    14 1   
    22    13    44 1   
    23    13    45 1   
    24    14    15 1   
    25    14    46 1   
    26    14    47 1   
    27    15    16 1   
    28    15    48 1   
    29    15    49 1   
    30    16    17 1   
    31    17    18 2   
    32    17    19 1   
    33    19    20 1   
    34    19    26 1   
    35    19    50 1   
    36    20    21 1   
    37    20    25 1   
    38    20    51 1   
    39    21    22 1   
    40    21    52 1   
    41    21    53 1   
    42    22    23 1   
    43    22    54 1   
    44    22    55 1   
    45    23    24 1   
    46    23    56 1   
    47    23    57 1   
    48    24    25 1   
    49    24    58 1   
    50    24    59 1   
    51    25    60 1   
    52    25    61 1   
    53    26    27 ar  
    54    26    28 ar  
    55    27    35 ar  
    56    27    62 1   
    57    28    29 ar  
    58    28    63 1   
    59    29    30 1   
    60    29    32 ar  
    61    30    31 1   
    62    31    64 1   
    63    31    65 1   
    64    31    66 1   
    65    32    33 1   
    66    32    35 ar  
    67    33    34 1   
    68    34    67 1   
    69    34    68 1   
    70    34    69 1   
    71    35    36 1   
    72    36    37 1   
    73    37    70 1   
    74    37    71 1   
    75    37    72 1   
@<TRIPOS>SUBSTRUCTURE
     1 A1H         1 TEMP              0 ****  ****    0 ROOT
