@<TRIPOS>MOLECULE
A1H
   75    77     1     0     0
SMALL
abcg2


@<TRIPOS>ATOM
      1 C14        -30.4890    17.8010    -4.8090 c5         1 A1H      -0.036500
      2 C6         -31.9490    17.7430    -5.1300 c2         1 A1H      -0.075400
      3 C9         -32.4280    16.3170    -5.2110 c6         1 A1H      -0.043200
      4 C11        -31.5740    15.4610    -6.1580 c6         1 A1H      -0.070400
      5 C12        -30.0730    15.5940    -5.8900 c6         1 A1H      -0.064400
      6 C5         -34.8560    19.9620    -5.8570 ce         1 A1H      -0.089200
      7 C10        -34.3050    21.3320    -5.9450 ce         1 A1H      -0.090200
      8 C19        -33.3340    21.6570    -6.7970 c2         1 A1H      -0.280000
      9 C21        -25.8740    16.4510    -5.1480 c3         1 A1H      -0.090100
     10 C23        -25.6300    17.2690    -8.2040 c3         1 A1H      -0.076400
     11 C25        -24.1740    17.8420   -10.2800 c3         1 A1H       0.186000
     12 C17        -28.2340    17.2950    -5.2660 c5         1 A1H      -0.054700
     13 C7         -32.7030    18.8400    -5.3100 cf         1 A1H      -0.195000
     14 C28        -34.1240    18.8640    -5.6030 cf         1 A1H      -0.125000
     15 C4         -36.3470    19.9150    -6.0830 c6         1 A1H       0.226500
     16 C3         -37.0560    20.8630    -5.1100 c6         1 A1H       0.142300
     17 C2         -36.4960    22.2720    -5.2690 c6         1 A1H      -0.146400
     18 C1         -34.9840    22.3250    -5.0380 c6         1 A1H       0.214500
     19 C16        -28.2690    18.7690    -4.8020 c5         1 A1H      -0.073400
     20 C20        -27.0100    16.8540    -6.0900 c3         1 A1H      -0.045700
     21 C22        -26.5060    17.8790    -7.1140 c3         1 A1H      -0.074400
     22 C24        -25.1630    18.3200    -9.2060 c3         1 A1H      -0.105400
     23 C26        -24.7770    16.7240   -11.1300 c3         1 A1H      -0.101100
     24 C15        -29.7620    19.1260    -4.6090 c5         1 A1H      -0.070400
     25 C27        -23.8030    19.0210   -11.1700 c3         1 A1H      -0.101100
     26 C13        -29.6360    17.0580    -5.8630 c5         1 A1H      -0.041000
     27 O4         -36.8190    18.5990    -5.9890 oh         1 A1H      -0.641000
     28 O2         -36.8790    20.3600    -3.8050 oh         1 A1H      -0.636000
     29 O1         -34.4670    23.6120    -5.2600 oh         1 A1H      -0.656000
     30 O3         -22.9560    17.4040    -9.6880 oh         1 A1H      -0.662000
     31 H141       -30.3660    17.2240    -3.8790 hc         1 A1H       0.052700
     32 H91        -33.4750    16.2460    -5.5070 hc         1 A1H       0.048700
     33 H92        -32.3630    15.8860    -4.2050 hc         1 A1H       0.048700
     34 H111       -31.7940    15.7390    -7.1910 hc         1 A1H       0.040200
     35 H112       -31.8750    14.4150    -6.0580 hc         1 A1H       0.040200
     36 H121       -29.8370    15.1380    -4.9210 hc         1 A1H       0.039200
     37 H122       -29.5120    15.0330    -6.6440 hc         1 A1H       0.039200
     38 H181       -29.4890    18.7210    -7.2900 hc         1 A1H       0.034033
     39 H182       -29.2070    17.1310    -7.9890 hc         1 A1H       0.034033
     40 H183       -30.8370    17.6460    -7.5880 hc         1 A1H       0.034033
     41 H191       -32.9420    22.6620    -6.8730 ha         1 A1H       0.173000
     42 H192       -32.9000    20.9130    -7.4530 ha         1 A1H       0.173000
     43 H211       -26.1770    15.6360    -4.4880 hc         1 A1H       0.032033
     44 H212       -24.9880    16.1170    -5.6910 hc         1 A1H       0.032033
     45 H213       -25.5740    17.2930    -4.5190 hc         1 A1H       0.032033
     46 H231       -26.1980    16.4850    -8.7140 hc         1 A1H       0.035700
     47 H232       -24.7670    16.7740    -7.7470 hc         1 A1H       0.035700
     48 H171       -28.2210    16.6770    -4.3590 hc         1 A1H       0.043700
     49 H71        -32.2170    19.8030    -5.2130 ha         1 A1H       0.177000
     50 H61        -34.6460    17.9160    -5.5880 ha         1 A1H       0.192000
     51 H41        -36.5360    20.3240    -7.0900 h1         1 A1H       0.037700
     52 H31        -38.1240    20.8840    -5.3760 h1         1 A1H       0.024700
     53 H21        -37.0040    22.9490    -4.5740 hc         1 A1H       0.049700
     54 H22        -36.7140    22.6340    -6.2780 hc         1 A1H       0.049700
     55 H11        -34.7850    22.0050    -4.0040 h1         1 A1H       0.050700
     56 H161       -27.6980    18.9030    -3.8820 hc         1 A1H       0.041700
     57 H162       -27.8180    19.4320    -5.5410 hc         1 A1H       0.041700
     58 H201       -27.3090    15.9540    -6.6450 hc         1 A1H       0.045700
     59 H221       -25.9400    18.6620    -6.5980 hc         1 A1H       0.042200
     60 H222       -27.3440    18.3860    -7.5950 hc         1 A1H       0.042200
     61 H241       -24.6980    19.1470    -8.6560 hc         1 A1H       0.047700
     62 H242       -26.0380    18.7440    -9.7080 hc         1 A1H       0.047700
     63 H261       -24.9760    15.8260   -10.5410 hc         1 A1H       0.040867
     64 H262       -25.7220    17.0370   -11.5780 hc         1 A1H       0.040867
     65 H263       -24.1000    16.4450   -11.9390 hc         1 A1H       0.040867
     66 H151       -30.0730    19.8640    -5.3510 hc         1 A1H       0.045200
     67 H152       -29.9700    19.5590    -3.6300 hc         1 A1H       0.045200
     68 H271       -23.3640    19.8330   -10.5870 hc         1 A1H       0.040867
     69 H272       -23.0850    18.7260   -11.9380 hc         1 A1H       0.040867
     70 H273       -24.6880    19.4120   -11.6730 hc         1 A1H       0.040867
     71 H39        -37.7430    18.5880    -6.2590 ho         1 A1H       0.443000
     72 HO2        -37.3590    20.9320    -3.1970 ho         1 A1H       0.435000
     73 HO1        -34.8520    24.2060    -4.6090 ho         1 A1H       0.443000
     74 HO3        -23.1330    16.6040    -9.1830 ho         1 A1H       0.439000
     75 C18        -29.8010    17.6770    -7.2520 c3         1 A1H      -0.077100
@<TRIPOS>BOND
     1     1     2 1   
     2     1    24 1   
     3     1    26 1   
     4     1    31 1   
     5     2     3 1   
     6     2    13 2   
     7     3     4 1   
     8     3    32 1   
     9     3    33 1   
    10     4     5 1   
    11     4    34 1   
    12     4    35 1   
    13     5    26 1   
    14     5    36 1   
    15     5    37 1   
    16     6     7 1   
    17     6    14 2   
    18     6    15 1   
    19     7     8 2   
    20     7    18 1   
    21     8    41 1   
    22     8    42 1   
    23     9    20 1   
    24     9    43 1   
    25     9    44 1   
    26     9    45 1   
    27    10    21 1   
    28    10    22 1   
    29    10    46 1   
    30    10    47 1   
    31    11    22 1   
    32    11    23 1   
    33    11    25 1   
    34    11    30 1   
    35    12    19 1   
    36    12    20 1   
    37    12    26 1   
    38    12    48 1   
    39    13    14 1   
    40    13    49 1   
    41    14    50 1   
    42    15    16 1   
    43    15    27 1   
    44    15    51 1   
    45    16    17 1   
    46    16    28 1   
    47    16    52 1   
    48    17    18 1   
    49    17    53 1   
    50    17    54 1   
    51    18    29 1   
    52    18    55 1   
    53    19    24 1   
    54    19    56 1   
    55    19    57 1   
    56    20    21 1   
    57    20    58 1   
    58    21    59 1   
    59    21    60 1   
    60    22    61 1   
    61    22    62 1   
    62    23    63 1   
    63    23    64 1   
    64    23    65 1   
    65    24    66 1   
    66    24    67 1   
    67    25    68 1   
    68    25    69 1   
    69    25    70 1   
    70    26    75 1   
    71    27    71 1   
    72    28    72 1   
    73    29    73 1   
    74    30    74 1   
    75    38    75 1   
    76    39    75 1   
    77    40    75 1   
@<TRIPOS>SUBSTRUCTURE
     1 A1H         1 TEMP              0 ****  ****    0 ROOT
