@<TRIPOS>MOLECULE
A1H
   75    78     1     0     0
SMALL
No Charge or Current Charge


@<TRIPOS>ATOM
      1 CAG         -8.7510    19.2080   -14.1860 c3         1 A1H      -0.124400
      2 CAK         -9.6130    18.0990   -14.7180 cc         1 A1H       0.313300
      3 NAJ        -10.7370    18.4410   -15.4240 nc         1 A1H      -0.645000
      4 CAI        -11.3870    17.3490   -15.8160 cd         1 A1H       0.402300
      5 SAH        -10.6610    15.8180   -15.3430 ss         1 A1H       0.034600
      6 CAL         -9.3960    16.7500   -14.5650 cd         1 A1H      -0.298300
      7 CAM         -8.2650    16.0650   -13.8490 c3         1 A1H       0.244900
      8 OAO         -8.3200    16.4650   -12.4740 os         1 A1H      -0.425100
      9 C           -7.3510    15.9990   -11.6260 c          1 A1H       0.575100
     10 O           -6.4140    15.3140   -12.0150 o          1 A1H      -0.488000
     11 CA          -7.3650    16.6680   -10.2150 c6         1 A1H       0.044700
     12 CB          -8.8070    16.8810    -9.6550 c6         1 A1H      -0.073400
     13 CAS         -9.4880    18.1730   -10.1450 c6         1 A1H      -0.077400
     14 CAR         -8.5830    19.3650    -9.8200 c6         1 A1H      -0.094400
     15 CAQ         -7.1820    19.2090   -10.4480 c6         1 A1H       0.101000
     16 N           -6.4940    17.9080   -10.1640 n          1 A1H      -0.394800
     17 CBC         -5.0870    17.7490   -10.3200 c          1 A1H       0.621100
     18 OBB         -4.5760    16.6630   -10.0690 o          1 A1H      -0.606100
     19 CBE         -4.2400    18.8880   -10.9620 c3         1 A1H      -0.087400
     20 CBD         -2.7150    18.8570   -10.5880 c6         1 A1H      -0.045700
     21 CAV         -1.9030    19.9390   -11.3640 c6         1 A1H      -0.073400
     22 CAW         -0.4010    19.9110   -10.9850 c6         1 A1H      -0.072400
     23 CAX         -0.2030    20.0770    -9.4600 c6         1 A1H      -0.075400
     24 CAY         -0.9980    19.0050    -8.6790 c6         1 A1H      -0.072400
     25 CAZ         -2.5000    19.0350    -9.0550 c6         1 A1H      -0.073400
     26 CBF         -4.4850    18.8310   -12.4760 ca         1 A1H      -0.008300
     27 CBK         -4.2270    17.6570   -13.1990 ca         1 A1H      -0.220500
     28 CBG         -5.0010    19.9490   -13.1510 ca         1 A1H      -0.220500
     29 CBH         -5.2840    19.9070   -14.5350 ca         1 A1H       0.154600
     30 OAF         -5.7950    21.0260   -15.1740 os         1 A1H      -0.324100
     31 CAE         -6.1150    22.2490   -14.4880 c3         1 A1H       0.144400
     32 CBI         -5.0470    18.6990   -15.2610 ca         1 A1H       0.024100
     33 OAD         -5.3170    18.5240   -16.6190 os         1 A1H      -0.326100
     34 CAC         -6.0000    19.4740   -17.4550 c3         1 A1H       0.147900
     35 CBJ         -4.5090    17.5830   -14.5780 ca         1 A1H       0.154600
     36 OAB         -4.2850    16.4190   -15.2980 os         1 A1H      -0.324100
     37 CAA         -3.7680    15.2200   -14.6950 c3         1 A1H       0.144400
     38 HAK         -8.5730    19.9690   -14.9540 hc         1 A1H       0.052700
     39 HAL         -9.2320    19.6940   -13.3300 hc         1 A1H       0.052700
     40 HAJ         -7.7780    18.8320   -13.8570 hc         1 A1H       0.052700
     41 HAM        -12.3050    17.3500   -16.3890 h5         1 A1H       0.052100
     42 HAN         -8.3650    14.9750   -13.9450 h1         1 A1H       0.072200
     43 HAO         -7.3120    16.3640   -14.3080 h1         1 A1H       0.072200
     44 HA          -6.9050    15.9050    -9.5720 h1         1 A1H       0.110700
     45 HB2         -9.4360    16.0110    -9.8930 hc         1 A1H       0.062700
     46 HB1         -8.7510    16.9120    -8.5580 hc         1 A1H       0.062700
     47 HAV        -10.4590    18.2950    -9.6470 hc         1 A1H       0.050700
     48 HAU         -9.6960    18.1350   -11.2220 hc         1 A1H       0.050700
     49 HAT         -8.4830    19.4650    -8.7310 hc         1 A1H       0.049700
     50 HAS         -9.0460    20.2960   -10.1760 hc         1 A1H       0.049700
     51 HAR         -6.5840    20.0450   -10.0640 h1         1 A1H       0.051700
     52 HAQ         -7.2620    19.3310   -11.5370 h1         1 A1H       0.051700
     53 HBE         -4.6400    19.8460   -10.6270 hc         1 A1H       0.062700
     54 HBD         -2.3330    17.8690   -10.8830 hc         1 A1H       0.072700
     55 HB3         -2.3160    20.9360   -11.1570 hc         1 A1H       0.040700
     56 HB4         -1.9940    19.7840   -12.4470 hc         1 A1H       0.040700
     57 HAW          0.0460    18.9630   -11.3150 hc         1 A1H       0.040700
     58 HB5          0.1320    20.7100   -11.5190 hc         1 A1H       0.040700
     59 HAX          0.8650    20.0060    -9.2120 hc         1 A1H       0.037200
     60 HB6         -0.5300    21.0800    -9.1510 hc         1 A1H       0.037200
     61 HAY         -0.5830    18.0090    -8.8900 hc         1 A1H       0.040700
     62 HB7         -0.8810    19.1680    -7.5990 hc         1 A1H       0.040700
     63 HB8         -2.9390    19.9870    -8.7250 hc         1 A1H       0.040700
     64 HAZ         -3.0220    18.2460    -8.4970 hc         1 A1H       0.040700
     65 HBK         -3.8220    16.8000   -12.6710 ha         1 A1H       0.128500
     66 HBG         -5.1830    20.8530   -12.5780 ha         1 A1H       0.128500
     67 HAI         -6.5180    22.9840   -15.1940 h1         1 A1H       0.042533
     68 HAG         -6.8710    22.0740   -13.7110 h1         1 A1H       0.042533
     69 HAH         -5.2200    22.6810   -14.0220 h1         1 A1H       0.042533
     70 HAF         -6.1410    19.0570   -18.4600 h1         1 A1H       0.033367
     71 HAD         -6.9900    19.7130   -17.0470 h1         1 A1H       0.033367
     72 HAE         -5.4160    20.3980   -17.5580 h1         1 A1H       0.033367
     73 HAA         -3.6730    14.4280   -15.4480 h1         1 A1H       0.042533
     74 HAB         -2.7750    15.3980   -14.2620 h1         1 A1H       0.042533
     75 HAC         -4.4380    14.8590   -13.9050 h1         1 A1H       0.042533
@<TRIPOS>BOND
     1     1     2 1   
     2     1    38 1   
     3     1    39 1   
     4     1    40 1   
     5     2     3 1   
     6     2     6 2   
     7     3     4 2   
     8     4     5 1   
     9     4    41 1   
    10     5     6 1   
    11     6     7 1   
    12     7     8 1   
    13     7    42 1   
    14     7    43 1   
    15     8     9 1   
    16     9    10 2   
    17     9    11 1   
    18    11    12 1   
    19    11    16 1   
    20    11    44 1   
    21    12    13 1   
    22    12    45 1   
    23    12    46 1   
    24    13    14 1   
    25    13    47 1   
    26    13    48 1   
    27    14    15 1   
    28    14    49 1   
    29    14    50 1   
    30    15    16 1   
    31    15    51 1   
    32    15    52 1   
    33    16    17 1   
    34    17    18 2   
    35    17    19 1   
    36    19    20 1   
    37    19    26 1   
    38    19    53 1   
    39    20    21 1   
    40    20    25 1   
    41    20    54 1   
    42    21    22 1   
    43    21    55 1   
    44    21    56 1   
    45    22    23 1   
    46    22    57 1   
    47    22    58 1   
    48    23    24 1   
    49    23    59 1   
    50    23    60 1   
    51    24    25 1   
    52    24    61 1   
    53    24    62 1   
    54    25    63 1   
    55    25    64 1   
    56    26    27 ar  
    57    26    28 ar  
    58    27    35 ar  
    59    27    65 1   
    60    28    29 ar  
    61    28    66 1   
    62    29    30 1   
    63    29    32 ar  
    64    30    31 1   
    65    31    67 1   
    66    31    68 1   
    67    31    69 1   
    68    32    33 1   
    69    32    35 ar  
    70    33    34 1   
    71    34    70 1   
    72    34    71 1   
    73    34    72 1   
    74    35    36 1   
    75    36    37 1   
    76    37    73 1   
    77    37    74 1   
    78    37    75 1   
@<TRIPOS>SUBSTRUCTURE
     1 A1H         1 TEMP              0 ****  ****    0 ROOT
