@<TRIPOS>MOLECULE
A1H
   58    62     1     0     0
SMALL
abcg2


@<TRIPOS>ATOM
      1 C1         -21.1370    14.1500    -6.6270 cc         1 A1H       0.200300
      2 C2         -19.0120    13.6410    -6.6930 cd         1 A1H       0.344500
      3 C3         -17.7340    12.9470    -6.9200 ca         1 A1H      -0.150500
      4 C7         -17.4810     9.3060    -9.6860 c6         1 A1H       0.164800
      5 C8         -17.5310     7.7870    -9.7060 c6         1 A1H      -0.073400
      6 C9         -17.0320     7.2420   -11.0370 c6         1 A1H      -0.076400
      7 C10        -15.6560     7.8180   -11.3470 c6         1 A1H      -0.073400
      8 C11        -15.6800     9.3370   -11.2730 c6         1 A1H       0.164800
      9 C12        -15.4340    11.5080    -7.4790 ca         1 A1H      -0.068000
     10 C13        -15.6760    11.9750    -6.1980 ca         1 A1H      -0.122000
     11 C14        -16.8250    12.7030    -5.8870 ca         1 A1H      -0.038300
     12 C15        -17.0630    13.1760    -4.4820 c3         1 A1H      -0.051800
     13 C16        -20.3130    13.1210    -6.9620 cd         1 A1H      -0.175000
     14 C19        -21.8590    10.3160    -8.9390 ca         1 A1H      -0.129000
     15 C20        -21.2650     9.2110    -8.3500 ca         1 A1H      -0.079000
     16 C21        -21.1980     6.8200    -8.0460 c          1 A1H       0.541000
     17 C22        -20.5380     7.1430    -6.7200 c6         1 A1H       0.071600
     18 C24        -20.0660    10.6640    -6.8480 ca         1 A1H      -0.084000
     19 O1         -21.4640     5.6840    -8.3790 o          1 A1H      -0.526000
     20 N2         -21.5030     7.9100    -8.7890 ns         1 A1H      -0.143000
     21 O2         -19.7490     8.3170    -6.7580 os         1 A1H      -0.322100
     22 C23        -20.3630     9.3950    -7.3020 ca         1 A1H       0.077100
     23 C18        -21.5480    11.5930    -8.4940 ca         1 A1H      -0.097000
     24 C17        -20.6510    11.7810    -7.4450 ca         1 A1H       0.002000
     25 C          -22.6080    14.3100    -6.6350 c3         1 A1H      -0.138400
     26 N          -19.0760    14.8610    -6.2460 nc         1 A1H      -0.348300
     27 O          -20.4000    15.1790    -6.2030 os         1 A1H      -0.071700
     28 C5         -16.3340    11.7620    -8.5090 ca         1 A1H      -0.088300
     29 C4         -17.4820    12.4780    -8.2070 ca         1 A1H      -0.078000
     30 C6         -16.0840    11.2500    -9.9010 c3         1 A1H       0.214100
     31 N1         -16.1450     9.8020    -9.9770 n3         1 A1H      -0.712600
     32 H7         -17.7850     9.6660    -8.7010 h1         1 A1H       0.030450
     33 H6         -18.2180     9.7050   -10.4070 h1         1 A1H       0.030450
     34 H9         -16.9150     7.3950    -8.8910 hc         1 A1H       0.046200
     35 H8         -18.5550     7.4620    -9.5150 hc         1 A1H       0.046200
     36 H11        -16.9990     6.1510   -11.0210 hc         1 A1H       0.037700
     37 H10        -17.7320     7.5250   -11.8310 hc         1 A1H       0.037700
     38 H13        -14.9260     7.4340   -10.6280 hc         1 A1H       0.046200
     39 H12        -15.3180     7.5130   -12.3390 hc         1 A1H       0.046200
     40 H15        -14.6750     9.7330   -11.4420 h1         1 A1H       0.030450
     41 H14        -16.3140     9.7270   -12.0900 h1         1 A1H       0.030450
     42 H16        -14.5350    10.9370    -7.6800 ha         1 A1H       0.124000
     43 H17        -14.9610    11.7640    -5.4120 ha         1 A1H       0.115000
     44 H18        -16.9570    14.2580    -4.3990 hc         1 A1H       0.048033
     45 H19        -18.0670    12.9270    -4.1350 hc         1 A1H       0.048033
     46 H20        -16.3500    12.7200    -3.7970 hc         1 A1H       0.048033
     47 H22        -22.5550    10.1790    -9.7570 ha         1 A1H       0.120000
     48 H24        -21.3260     7.2280    -5.9590 h1         1 A1H       0.085200
     49 H25        -19.8810     6.3220    -6.4390 h1         1 A1H       0.085200
     50 H26        -19.3700    10.7790    -6.0260 ha         1 A1H       0.142000
     51 H23        -22.0130     7.7710    -9.6510 hn         1 A1H       0.165000
     52 H21        -21.9970    12.4470    -8.9830 ha         1 A1H       0.120000
     53 H2         -22.9630    14.7420    -5.6990 hc         1 A1H       0.064700
     54 H          -22.9300    14.9640    -7.4470 hc         1 A1H       0.064700
     55 H1         -23.0880    13.3440    -6.7730 hc         1 A1H       0.064700
     56 H3         -18.2040    12.6740    -8.9920 ha         1 A1H       0.117000
     57 H4         -16.7990    11.7250   -10.5960 h1         1 A1H       0.036700
     58 H5         -15.0870    11.5610   -10.2250 h1         1 A1H       0.036700
@<TRIPOS>BOND
     1     1    13 2   
     2     1    25 1   
     3     1    27 1   
     4     2     3 1   
     5     2    13 1   
     6     2    26 2   
     7     3    11 ar  
     8     3    29 ar  
     9     4     5 1   
    10     4    31 1   
    11     4    32 1   
    12     4    33 1   
    13     5     6 1   
    14     5    34 1   
    15     5    35 1   
    16     6     7 1   
    17     6    36 1   
    18     6    37 1   
    19     7     8 1   
    20     7    38 1   
    21     7    39 1   
    22     8    31 1   
    23     8    40 1   
    24     8    41 1   
    25     9    10 ar  
    26     9    28 ar  
    27     9    42 1   
    28    10    11 ar  
    29    10    43 1   
    30    11    12 1   
    31    12    44 1   
    32    12    45 1   
    33    12    46 1   
    34    13    24 1   
    35    14    15 ar  
    36    14    23 ar  
    37    14    47 1   
    38    15    20 1   
    39    15    22 ar  
    40    16    17 1   
    41    16    19 2   
    42    16    20 1   
    43    17    21 1   
    44    17    48 1   
    45    17    49 1   
    46    18    22 ar  
    47    18    24 ar  
    48    18    50 1   
    49    20    51 1   
    50    21    22 1   
    51    23    24 ar  
    52    23    52 1   
    53    25    53 1   
    54    25    54 1   
    55    25    55 1   
    56    26    27 1   
    57    28    29 ar  
    58    28    30 1   
    59    29    56 1   
    60    30    31 1   
    61    30    57 1   
    62    30    58 1   
@<TRIPOS>SUBSTRUCTURE
     1 A1H         1 TEMP              0 ****  ****    0 ROOT
