@<TRIPOS>MOLECULE
A1H
   58    62     1     0     0
SMALL
No Charge or Current Charge


@<TRIPOS>ATOM
      1 C1         -21.1120    14.2440    -6.8810 cc         1 A1H       0.200300
      2 C2         -18.9910    13.6680    -6.7590 cd         1 A1H       0.344500
      3 C3         -17.7210    12.9390    -6.8940 ca         1 A1H      -0.150500
      4 C7         -17.6040     9.5090    -9.8580 c6         1 A1H       0.164800
      5 C8         -17.9360     8.0030    -9.9950 c6         1 A1H      -0.073400
      6 C9         -17.3430     7.4140   -11.2940 c6         1 A1H      -0.076400
      7 C10        -15.8310     7.7230   -11.3750 c6         1 A1H      -0.073400
      8 C11        -15.5660     9.2400   -11.2130 c6         1 A1H       0.164800
      9 C12        -15.3360    11.4800    -7.2430 ca         1 A1H      -0.068000
     10 C13        -15.6860    11.9660    -5.9720 ca         1 A1H      -0.122000
     11 C14        -16.8760    12.6950    -5.7850 ca         1 A1H      -0.038300
     12 C15        -17.2450    13.1810    -4.3870 c3         1 A1H      -0.051800
     13 C16        -20.2950    13.1460    -6.9710 cd         1 A1H      -0.175000
     14 C19        -22.1440    10.1800    -8.5160 ca         1 A1H      -0.129000
     15 C20        -21.3590     9.1080    -8.0700 ca         1 A1H      -0.079000
     16 C21        -20.9110     6.6860    -8.0260 c          1 A1H       0.541000
     17 C22        -20.0730     6.9820    -6.7660 c6         1 A1H       0.071600
     18 C24        -19.8770    10.6660    -6.9250 ca         1 A1H      -0.084000
     19 O1         -20.8860     5.6200    -8.6300 o          1 A1H      -0.526000
     20 N2         -21.6350     7.7780    -8.4520 ns         1 A1H      -0.143000
     21 O2         -19.4510     8.2960    -6.8250 os         1 A1H      -0.322100
     22 C23        -20.2290     9.3520    -7.2650 ca         1 A1H       0.077100
     23 C18        -21.8020    11.4950    -8.1510 ca         1 A1H      -0.097000
     24 C17        -20.6620    11.7610    -7.3560 ca         1 A1H       0.002000
     25 C          -22.6030    14.4180    -6.9720 c3         1 A1H      -0.138400
     26 N          -18.9820    14.9610    -6.4930 nc         1 A1H      -0.348300
     27 O          -20.3600    15.3450    -6.5530 os         1 A1H      -0.071700
     28 C5         -16.1720    11.7180    -8.3480 ca         1 A1H      -0.088300
     29 C4         -17.3600    12.4480    -8.1650 ca         1 A1H      -0.078000
     30 C6         -15.7910    11.1930    -9.7290 c3         1 A1H       0.214100
     31 N1         -16.1370     9.7670    -9.9420 n3         1 A1H      -0.712600
     32 H7         -18.0010     9.8590    -8.8960 h1         1 A1H       0.030450
     33 H6         -18.1330    10.0650   -10.6470 h1         1 A1H       0.030450
     34 H9         -17.5400     7.4610    -9.1250 hc         1 A1H       0.046200
     35 H8         -19.0240     7.8630    -9.9850 hc         1 A1H       0.046200
     36 H11        -17.5120     6.3300   -11.3310 hc         1 A1H       0.037700
     37 H10        -17.8570     7.8460   -12.1650 hc         1 A1H       0.037700
     38 H13        -15.2960     7.1710   -10.5900 hc         1 A1H       0.046200
     39 H12        -15.4270     7.3760   -12.3350 hc         1 A1H       0.046200
     40 H15        -14.4790     9.4100   -11.2400 h1         1 A1H       0.030450
     41 H14        -15.9980     9.7740   -12.0730 h1         1 A1H       0.030450
     42 H16        -14.4160    10.9130    -7.3700 ha         1 A1H       0.124000
     43 H17        -15.0290    11.7670    -5.1290 ha         1 A1H       0.115000
     44 H18        -17.1400    14.2690    -4.3100 hc         1 A1H       0.048033
     45 H19        -18.2800    12.9220    -4.1360 hc         1 A1H       0.048033
     46 H20        -16.6030    12.7330    -3.6190 hc         1 A1H       0.048033
     47 H22        -23.0100    10.0010    -9.1500 ha         1 A1H       0.120000
     48 H24        -20.7550     6.9440    -5.9060 h1         1 A1H       0.085200
     49 H25        -19.3040     6.2060    -6.6580 h1         1 A1H       0.085200
     50 H26        -19.0120    10.8170    -6.2880 ha         1 A1H       0.142000
     51 H23        -22.2530     7.6440    -9.2420 hn         1 A1H       0.165000
     52 H21        -22.4120    12.3070    -8.5340 ha         1 A1H       0.120000
     53 H2         -22.9280    15.2940    -6.3990 hc         1 A1H       0.064700
     54 H          -22.9160    14.5650    -8.0120 hc         1 A1H       0.064700
     55 H1         -23.1270    13.5450    -6.5670 hc         1 A1H       0.064700
     56 H3         -18.0140    12.6300    -9.0160 ha         1 A1H       0.117000
     57 H4         -16.2760    11.8150   -10.4950 h1         1 A1H       0.036700
     58 H5         -14.7080    11.3320    -9.8530 h1         1 A1H       0.036700
@<TRIPOS>BOND
     1     1    13 2   
     2     1    25 1   
     3     1    27 1   
     4     2     3 1   
     5     2    13 1   
     6     2    26 2   
     7     3    11 ar  
     8     3    29 ar  
     9     4     5 1   
    10     4    31 1   
    11     4    32 1   
    12     4    33 1   
    13     5     6 1   
    14     5    34 1   
    15     5    35 1   
    16     6     7 1   
    17     6    36 1   
    18     6    37 1   
    19     7     8 1   
    20     7    38 1   
    21     7    39 1   
    22     8    31 1   
    23     8    40 1   
    24     8    41 1   
    25     9    10 ar  
    26     9    28 ar  
    27     9    42 1   
    28    10    11 ar  
    29    10    43 1   
    30    11    12 1   
    31    12    44 1   
    32    12    45 1   
    33    12    46 1   
    34    13    24 1   
    35    14    15 ar  
    36    14    23 ar  
    37    14    47 1   
    38    15    20 1   
    39    15    22 ar  
    40    16    17 1   
    41    16    19 2   
    42    16    20 1   
    43    17    21 1   
    44    17    48 1   
    45    17    49 1   
    46    18    22 ar  
    47    18    24 ar  
    48    18    50 1   
    49    20    51 1   
    50    21    22 1   
    51    23    24 ar  
    52    23    52 1   
    53    25    53 1   
    54    25    54 1   
    55    25    55 1   
    56    26    27 1   
    57    28    29 ar  
    58    28    30 1   
    59    29    56 1   
    60    30    31 1   
    61    30    57 1   
    62    30    58 1   
@<TRIPOS>SUBSTRUCTURE
     1 A1H         1 TEMP              0 ****  ****    0 ROOT
