@<TRIPOS>MOLECULE
A1H
   79    82     1     0     0
SMALL
abcg2


@<TRIPOS>ATOM
      1 CBF          7.3440    20.4580    16.2930 c3         1 A1H      -0.110100
      2 CBE          7.2570    20.0000    17.7380 c3         1 A1H       0.088600
      3 NBC          7.8700    18.7020    17.9470 na         1 A1H       0.129800
      4 CBD          7.2530    17.5420    18.2180 cc         1 A1H      -0.131000
      5 NBB          9.1890    18.5600    17.8380 nc         1 A1H      -0.533800
      6 CBA          9.4210    17.2770    18.0410 cd         1 A1H       0.256900
      7 CAZ          8.2290    16.5710    18.2870 cd         1 A1H      -0.258300
      8 CAY          8.0670    15.1280    18.5940 c3         1 A1H       0.251900
      9 OAX          8.6150    14.8070    19.8840 os         1 A1H      -0.433100
     10 C            7.9420    15.1600    20.9650 c          1 A1H       0.578100
     11 O            6.8280    15.6200    20.9520 o          1 A1H      -0.496000
     12 CA           8.7190    14.8580    22.2460 c6         1 A1H       0.043700
     13 CB           8.3570    15.8190    23.3750 c6         1 A1H      -0.073400
     14 CAS          8.9560    17.2010    23.1640 c6         1 A1H      -0.077400
     15 CAT         10.4560    17.0820    22.9390 c6         1 A1H      -0.092400
     16 CAU         10.7650    16.1330    21.7920 c6         1 A1H       0.102000
     17 N           10.1520    14.8290    22.0070 n          1 A1H      -0.392800
     18 CAH         10.7350    13.6270    21.7650 c          1 A1H       0.621100
     19 OAP         10.1130    12.5820    21.8990 o          1 A1H      -0.609100
     20 CAG         12.1740    13.6010    21.2520 c3         1 A1H      -0.086400
     21 CAJ         12.9090    12.3080    21.6420 c6         1 A1H      -0.043700
     22 CAK         13.0500    12.1980    23.1620 c6         1 A1H      -0.073900
     23 CAL         13.8250    10.9520    23.5770 c6         1 A1H      -0.072400
     24 CAM         15.2000    10.9090    22.9210 c6         1 A1H      -0.076400
     25 CAN         15.0740    11.0150    21.4060 c6         1 A1H      -0.072400
     26 CAO         14.2940    12.2590    20.9930 c6         1 A1H      -0.073900
     27 CAF         12.1030    13.8190    19.7520 ca         1 A1H      -0.009300
     28 CAE         11.3490    12.9570    18.9630 ca         1 A1H      -0.216500
     29 CAA         12.7910    14.8750    19.1700 ca         1 A1H      -0.216500
     30 CAB         12.7270    15.0780    17.7920 ca         1 A1H       0.151600
     31 OBI         13.3570    16.0740    17.1410 os         1 A1H      -0.325100
     32 CBJ         14.1500    16.9710    17.8920 c3         1 A1H       0.144400
     33 CAC         11.9660    14.2200    16.9950 ca         1 A1H       0.026100
     34 OBG         11.9070    14.3940    15.6480 os         1 A1H      -0.327100
     35 CBH         10.8930    15.2910    15.2190 c3         1 A1H       0.146900
     36 CAD         11.2730    13.1610    17.5890 ca         1 A1H       0.151600
     37 OBK         10.5530    12.3970    16.7490 os         1 A1H      -0.325100
     38 CBL          9.8340    11.3050    17.2820 c3         1 A1H       0.144400
     39 HCB          6.8630    21.4300    16.1870 hc         1 A1H       0.050367
     40 HBF          8.3800    20.5590    15.9720 hc         1 A1H       0.050367
     41 HCA          6.8420    19.7570    15.6270 hc         1 A1H       0.050367
     42 HBE          7.7420    20.7160    18.4010 h1         1 A1H       0.060200
     43 HB9          6.2180    19.9150    18.0540 h1         1 A1H       0.060200
     44 HBD          6.1830    17.4810    18.3430 h4         1 A1H       0.161000
     45 HBA         10.4300    16.8930    18.0170 h4         1 A1H       0.042100
     46 HAY          7.0220    14.8210    18.5310 h1         1 A1H       0.066200
     47 HB8          8.6420    14.5110    17.9040 h1         1 A1H       0.066200
     48 HA           8.4110    13.8530    22.5430 h1         1 A1H       0.110700
     49 HB2          7.2730    15.8640    23.4780 hc         1 A1H       0.061700
     50 HB1          8.7410    15.3920    24.3060 hc         1 A1H       0.061700
     51 HB4          8.7460    17.8360    24.0260 hc         1 A1H       0.049700
     52 HB3          8.4920    17.6860    22.2990 hc         1 A1H       0.049700
     53 HB6         10.9420    16.7190    23.8490 hc         1 A1H       0.048200
     54 HB5         10.8940    18.0550    22.7080 hc         1 A1H       0.048200
     55 HB7         11.8390    16.0310    21.6920 h1         1 A1H       0.051200
     56 HAU         10.4070    16.5620    20.8490 h1         1 A1H       0.051200
     57 HAG         12.7550    14.4190    21.6830 hc         1 A1H       0.062700
     58 HAJ         12.3340    11.4490    21.2800 hc         1 A1H       0.071700
     59 HAL         13.5760    13.0870    23.5310 hc         1 A1H       0.041450
     60 HAK         12.0700    12.1930    23.6440 hc         1 A1H       0.041450
     61 HAN         13.2580    10.0600    23.2890 hc         1 A1H       0.039950
     62 HAM         13.9200    10.9200    24.6650 hc         1 A1H       0.039950
     63 HAP         15.7250     9.9910    23.1970 hc         1 A1H       0.037200
     64 HAO         15.8060    11.7410    23.2950 hc         1 A1H       0.037200
     65 HAR         14.5600    10.1270    21.0240 hc         1 A1H       0.039950
     66 HAQ         16.0620    11.0270    20.9410 hc         1 A1H       0.039950
     67 HAS         14.8570    13.1560    21.2820 hc         1 A1H       0.041450
     68 HAT         14.2040    12.2900    19.9050 hc         1 A1H       0.041450
     69 HAE         10.8110    12.1430    19.4270 ha         1 A1H       0.128000
     70 HAA         13.3750    15.5320    19.8010 ha         1 A1H       0.128000
     71 HCF         14.5710    17.6780    17.1810 h1         1 A1H       0.042533
     72 HBJ         13.5590    17.5210    18.6280 h1         1 A1H       0.042533
     73 HCE         14.9690    16.4610    18.4060 h1         1 A1H       0.042533
     74 HCD         10.8780    15.2630    14.1300 h1         1 A1H       0.034033
     75 HBH          9.9060    14.9990    15.5890 h1         1 A1H       0.034033
     76 HCC         11.0930    16.3160    15.5380 h1         1 A1H       0.034033
     77 HBL          9.3440    10.8190    16.4420 h1         1 A1H       0.042533
     78 HCG         10.4910    10.5810    17.7720 h1         1 A1H       0.042533
     79 HCH          9.0700    11.6260    17.9960 h1         1 A1H       0.042533
@<TRIPOS>BOND
     1     1     2 1   
     2     1    39 1   
     3     1    40 1   
     4     1    41 1   
     5     2     3 1   
     6     2    42 1   
     7     2    43 1   
     8     3     4 1   
     9     3     5 1   
    10     4     7 2   
    11     4    44 1   
    12     5     6 2   
    13     6     7 1   
    14     6    45 1   
    15     7     8 1   
    16     8     9 1   
    17     8    46 1   
    18     8    47 1   
    19     9    10 1   
    20    10    11 2   
    21    10    12 1   
    22    12    13 1   
    23    12    17 1   
    24    12    48 1   
    25    13    14 1   
    26    13    49 1   
    27    13    50 1   
    28    14    15 1   
    29    14    51 1   
    30    14    52 1   
    31    15    16 1   
    32    15    53 1   
    33    15    54 1   
    34    16    17 1   
    35    16    55 1   
    36    16    56 1   
    37    17    18 1   
    38    18    19 2   
    39    18    20 1   
    40    20    21 1   
    41    20    27 1   
    42    20    57 1   
    43    21    22 1   
    44    21    26 1   
    45    21    58 1   
    46    22    23 1   
    47    22    59 1   
    48    22    60 1   
    49    23    24 1   
    50    23    61 1   
    51    23    62 1   
    52    24    25 1   
    53    24    63 1   
    54    24    64 1   
    55    25    26 1   
    56    25    65 1   
    57    25    66 1   
    58    26    67 1   
    59    26    68 1   
    60    27    28 ar  
    61    27    29 ar  
    62    28    36 ar  
    63    28    69 1   
    64    29    30 ar  
    65    29    70 1   
    66    30    31 1   
    67    30    33 ar  
    68    31    32 1   
    69    32    71 1   
    70    32    72 1   
    71    32    73 1   
    72    33    34 1   
    73    33    36 ar  
    74    34    35 1   
    75    35    74 1   
    76    35    75 1   
    77    35    76 1   
    78    36    37 1   
    79    37    38 1   
    80    38    77 1   
    81    38    78 1   
    82    38    79 1   
@<TRIPOS>SUBSTRUCTURE
     1 A1H         1 TEMP              0 ****  ****    0 ROOT
