@<TRIPOS>MOLECULE
A1H
   51    54     1     0     0
SMALL
abcg2


@<TRIPOS>ATOM
      1 C4          -9.9870   -16.0400    19.6060 c5         1 A1H       0.149700
      2 C14         -8.1940   -15.7480    17.7980 c6         1 A1H       0.243500
      3 C5         -10.5660   -16.9250    20.7240 c5         1 A1H      -0.085400
      4 C6         -11.9410   -17.3370    20.2240 c5         1 A1H      -0.071400
      5 C7         -12.4100   -16.0910    19.4850 c5         1 A1H      -0.045300
      6 C8         -13.0300   -15.0490    20.4530 c          1 A1H       0.722000
      7 C9         -11.2740   -14.8250    17.7870 c          1 A1H       0.573000
      8 C10        -10.0460   -14.2190    17.1130 c6         1 A1H       0.147500
      9 C13         -8.0630   -16.2450    16.3610 c6         1 A1H      -0.094400
     10 N1         -11.1810   -15.6200    18.8590 n          1 A1H      -0.355800
     11 N2          -8.7970   -14.4120    17.8350 n3         1 A1H      -0.766500
     12 C3          -8.9730   -16.7510    18.7000 c3         1 A1H      -0.054500
     13 C2          -7.9560   -17.5230    19.4860 c2         1 A1H      -0.200200
     14 O1         -14.1490   -15.3650    20.9000 o          1 A1H      -0.722500
     15 O2         -12.3700   -14.0260    20.7110 o          1 A1H      -0.722500
     16 O3         -12.3560   -14.5410    17.2800 o          1 A1H      -0.587000
     17 S1          -7.7970   -13.1310    18.0860 sy         1 A1H       1.182600
     18 O4          -8.5790   -11.9180    17.9180 o          1 A1H      -0.549500
     19 O5          -6.5540   -13.2740    17.3440 o          1 A1H      -0.549500
     20 C15         -7.3990   -13.2930    19.8130 ca         1 A1H      -0.259500
     21 C16         -6.1130   -13.6310    20.1940 ca         1 A1H      -0.003500
     22 C17         -5.8530   -13.7760    21.5490 ca         1 A1H       0.098000
     23 CL1         -4.2620   -14.2010    22.0570 cl         1 A1H      -0.181000
     24 C18         -6.8420   -13.5970    22.5010 ca         1 A1H      -0.064000
     25 C19         -8.1190   -13.2550    22.0750 ca         1 A1H       0.098000
     26 CL2         -9.3690   -13.0610    23.2460 cl         1 A1H      -0.181000
     27 C20         -8.4150   -13.0860    20.7360 ca         1 A1H      -0.003500
     28 H5          -9.5030   -15.1790    20.0650 h1         1 A1H       0.051700
     29 H18         -7.1900   -15.6570    18.2180 h1         1 A1H       0.048700
     30 H6          -9.9230   -17.7730    20.9580 hc         1 A1H       0.047700
     31 H7         -10.6580   -16.3350    21.6380 hc         1 A1H       0.047700
     32 H9         -12.6220   -17.6280    21.0220 hc         1 A1H       0.039700
     33 H8         -11.8630   -18.1800    19.5320 hc         1 A1H       0.039700
     34 H10        -13.1450   -16.3380    18.7180 h1         1 A1H       0.071700
     35 H11        -10.2610   -13.1510    17.0950 h1         1 A1H       0.109700
     36 H14        -10.1200   -16.8240    16.0150 hc         1 A1H       0.043700
     37 H15         -9.2330   -16.4260    14.5640 hc         1 A1H       0.043700
     38 H16         -7.7080   -17.2780    16.3770 hc         1 A1H       0.048200
     39 H17         -7.2980   -15.6530    15.8540 hc         1 A1H       0.048200
     40 H4          -9.5200   -17.4580    18.0680 hc         1 A1H       0.066700
     41 H1          -8.1490   -19.3830    18.5140 ha         1 A1H       0.157500
     42 H2          -6.8750   -19.2940    19.8460 ha         1 A1H       0.157500
     43 H3          -7.4240   -16.9640    20.2540 ha         1 A1H       0.167000
     44 H19         -5.3320   -13.7860    19.4630 ha         1 A1H       0.168000
     45 H20         -6.6280   -13.7250    23.5530 ha         1 A1H       0.137000
     46 H21         -9.4200   -12.8320    20.4230 ha         1 A1H       0.168000
     47 C11         -9.9090   -14.7050    15.6670 c6         1 A1H      -0.085400
     48 C12         -9.3800   -16.1300    15.6040 c6         1 A1H      -0.073400
     49 C1          -7.6440   -18.7950    19.2720 c2         1 A1H      -0.332000
     50 H13         -9.2140   -14.0330    15.1540 hc         1 A1H       0.054700
     51 H12        -10.8680   -14.6150    15.1580 hc         1 A1H       0.054700
@<TRIPOS>BOND
     1     1     3 1   
     2     1    10 1   
     3     1    12 1   
     4     1    28 1   
     5     2     9 1   
     6     2    11 1   
     7     2    12 1   
     8     2    29 1   
     9     3     4 1   
    10     3    30 1   
    11     3    31 1   
    12     4     5 1   
    13     4    32 1   
    14     4    33 1   
    15     5     6 1   
    16     5    10 1   
    17     5    34 1   
    18     6    14 1   
    19     6    15 1   
    20     7     8 1   
    21     7    10 1   
    22     7    16 2   
    23     8    11 1   
    24     8    35 1   
    25     8    47 1   
    26     9    38 1   
    27     9    39 1   
    28     9    48 1   
    29    11    17 1   
    30    12    13 1   
    31    12    40 1   
    32    13    43 1   
    33    13    49 2   
    34    17    18 2   
    35    17    19 2   
    36    17    20 1   
    37    20    21 ar  
    38    20    27 ar  
    39    21    22 ar  
    40    21    44 1   
    41    22    23 1   
    42    22    24 ar  
    43    24    25 ar  
    44    24    45 1   
    45    25    26 1   
    46    25    27 ar  
    47    27    46 1   
    48    36    48 1   
    49    37    48 1   
    50    41    49 1   
    51    42    49 1   
    52    47    48 1   
    53    47    50 1   
    54    47    51 1   
@<TRIPOS>SUBSTRUCTURE
     1 A1H         1 TEMP              0 ****  ****    0 ROOT
