@<TRIPOS>MOLECULE
A1H
   53    56     1     0     0
SMALL
abcg2


@<TRIPOS>ATOM
      1 C4          -8.1920   -15.6780    17.7720 c6         1 A1H       0.239500
      2 C14        -10.0480   -15.9380    19.5140 c5         1 A1H       0.151700
      3 C5          -8.0400   -16.1930    16.3440 c6         1 A1H      -0.096400
      4 C6          -9.3300   -16.0530    15.5470 c6         1 A1H      -0.075400
      5 C7          -9.8210   -14.6120    15.5790 c6         1 A1H      -0.089400
      6 C8         -10.0000   -14.1170    17.0170 c6         1 A1H       0.157500
      7 C9         -11.2550   -14.7260    17.6310 c          1 A1H       0.574000
      8 C10        -12.4380   -16.1770    19.1130 c5         1 A1H       0.018700
      9 C12        -11.9640   -17.3340    19.9940 c5         1 A1H      -0.082400
     10 C13        -10.6900   -16.7880    20.6180 c5         1 A1H      -0.092400
     11 N1         -11.1970   -15.5670    18.6760 n          1 A1H      -0.384800
     12 C3          -8.9830   -16.6640    18.6840 c3         1 A1H      -0.049500
     13 N3          -8.7830   -14.3340    17.7890 n3         1 A1H      -0.774500
     14 C2          -7.9900   -17.3860    19.5430 c2         1 A1H      -0.227200
     15 O1         -12.3240   -14.4440    17.1030 o          1 A1H      -0.575000
     16 S1          -7.7560   -13.0660    18.0290 sy         1 A1H       1.175600
     17 O3          -8.5250   -11.8440    17.8690 o          1 A1H      -0.534500
     18 O4          -6.5260   -13.2290    17.2720 o          1 A1H      -0.534500
     19 C15         -7.3410   -13.2310    19.7520 ca         1 A1H      -0.257500
     20 C16         -6.0670   -13.6330    20.1130 ca         1 A1H      -0.010000
     21 C17         -5.7800   -13.7440    21.4660 ca         1 A1H       0.100000
     22 CL1         -4.2030   -14.2420    21.9510 cl         1 A1H      -0.175500
     23 C18         -6.7280   -13.4600    22.4340 ca         1 A1H      -0.053000
     24 C19         -7.9910   -13.0520    22.0280 ca         1 A1H       0.100000
     25 CL2         -9.1780   -12.6870    23.2240 cl         1 A1H      -0.175500
     26 C20         -8.3170   -12.9280    20.6900 ca         1 A1H      -0.010000
     27 H5          -7.1920   -15.5900    18.2010 h1         1 A1H       0.058700
     28 H20         -9.6090   -15.0500    19.9670 h1         1 A1H       0.068700
     29 H7          -7.7120   -17.2350    16.3810 hc         1 A1H       0.059700
     30 H6          -7.2470   -15.6270    15.8500 hc         1 A1H       0.059700
     31 H9         -10.1010   -16.7230    15.9430 hc         1 A1H       0.048200
     32 H8          -9.1620   -16.3640    14.5150 hc         1 A1H       0.048200
     33 H10         -9.0880   -13.9630    15.0910 hc         1 A1H       0.065700
     34 H11        -10.7560   -14.4990    15.0320 hc         1 A1H       0.065700
     35 H12        -10.2010   -13.0460    16.9930 h1         1 A1H       0.116700
     36 H13        -13.0070   -16.5410    18.2560 h1         1 A1H       0.080700
     37 H16        -12.7100   -17.6390    20.7270 hc         1 A1H       0.056700
     38 H17        -11.7480   -18.1970    19.3620 hc         1 A1H       0.056700
     39 H19        -10.0270   -17.5730    20.9770 hc         1 A1H       0.065700
     40 H18        -10.9280   -16.1510    21.4710 hc         1 A1H       0.065700
     41 H15        -15.2200   -14.8820    20.4700 hn         1 A1H       0.314000
     42 H14        -14.9840   -16.2190    19.4160 hn         1 A1H       0.314000
     43 H4          -9.4940   -17.4020    18.0560 hc         1 A1H       0.066700
     44 H1          -8.1420   -19.2950    18.6620 ha         1 A1H       0.166500
     45 H2          -6.9180   -19.1320    20.0340 ha         1 A1H       0.166500
     46 H3          -7.4900   -16.7830    20.2990 ha         1 A1H       0.173000
     47 H21         -5.3140   -13.8570    19.3700 ha         1 A1H       0.159500
     48 H22         -6.4890   -13.5510    23.4850 ha         1 A1H       0.147000
     49 H23         -9.3090   -12.6110    20.3920 ha         1 A1H       0.159500
     50 C11        -13.2780   -15.1740    19.9010 c          1 A1H       0.602100
     51 N2         -14.5880   -15.4510    19.9300 nt         1 A1H      -0.605000
     52 C1          -7.6670   -18.6660    19.4070 c2         1 A1H      -0.304000
     53 O2         -12.7710   -14.2300    20.4850 o          1 A1H      -0.597100
@<TRIPOS>BOND
     1     1     3 1   
     2     1    12 1   
     3     1    13 1   
     4     1    27 1   
     5     2    10 1   
     6     2    11 1   
     7     2    12 1   
     8     2    28 1   
     9     3     4 1   
    10     3    29 1   
    11     3    30 1   
    12     4     5 1   
    13     4    31 1   
    14     4    32 1   
    15     5     6 1   
    16     5    33 1   
    17     5    34 1   
    18     6     7 1   
    19     6    13 1   
    20     6    35 1   
    21     7    11 1   
    22     7    15 2   
    23     8     9 1   
    24     8    11 1   
    25     8    36 1   
    26     8    50 1   
    27     9    10 1   
    28     9    37 1   
    29     9    38 1   
    30    10    39 1   
    31    10    40 1   
    32    12    14 1   
    33    12    43 1   
    34    13    16 1   
    35    14    46 1   
    36    14    52 2   
    37    16    17 2   
    38    16    18 2   
    39    16    19 1   
    40    19    20 ar  
    41    19    26 ar  
    42    20    21 ar  
    43    20    47 1   
    44    21    22 1   
    45    21    23 ar  
    46    23    24 ar  
    47    23    48 1   
    48    24    25 1   
    49    24    26 ar  
    50    26    49 1   
    51    41    51 1   
    52    42    51 1   
    53    44    52 1   
    54    45    52 1   
    55    50    51 1   
    56    50    53 2   
@<TRIPOS>SUBSTRUCTURE
     1 A1H         1 TEMP              0 ****  ****    0 ROOT
