@<TRIPOS>MOLECULE
A1H
   82    85     1     0     0
SMALL
No Charge or Current Charge


@<TRIPOS>ATOM
      1 CBG         15.6670   -17.0310   -16.5870 c3         1 A1H      -0.090100
      2 CBF         14.5700   -16.6590   -15.5690 c3         1 A1H      -0.095400
      3 CBE         13.1570   -17.0840   -16.0230 c3         1 A1H       0.087600
      4 NBC         12.1070   -16.7240   -15.0540 na         1 A1H       0.127800
      5 CBD         11.4800   -15.4870   -14.9470 cc         1 A1H      -0.132000
      6 NBB         11.6590   -17.6540   -14.1390 nc         1 A1H      -0.533800
      7 CBA         10.7430   -16.9810   -13.4690 cd         1 A1H       0.256900
      8 CAZ         10.5960   -15.6500   -13.9170 cd         1 A1H      -0.258300
      9 CAY          9.6340   -14.6350   -13.3650 c3         1 A1H       0.252900
     10 OAX          9.4730   -14.8940   -11.9640 os         1 A1H      -0.432100
     11 C            8.5280   -14.1790   -11.2760 c          1 A1H       0.581100
     12 O            7.7250   -13.4460   -11.8380 o          1 A1H      -0.492000
     13 CA           8.2880   -14.7140    -9.8300 c6         1 A1H       0.043700
     14 CB           9.6040   -14.7820    -8.9950 c6         1 A1H      -0.072400
     15 CAS         10.4180   -16.0720    -9.2030 c6         1 A1H      -0.076400
     16 CAT          9.5170   -17.2740    -8.9100 c6         1 A1H      -0.094400
     17 CAU          8.2640   -17.2780    -9.8090 c6         1 A1H       0.100000
     18 N            7.4840   -15.9980    -9.8380 n          1 A1H      -0.396800
     19 CAH          6.1490   -15.9460   -10.3250 c          1 A1H       0.622100
     20 OAP          5.5280   -14.8910   -10.2580 o          1 A1H      -0.605100
     21 CAG          5.5570   -17.1620   -11.0990 c3         1 A1H      -0.086400
     22 CAJ          3.9950   -17.2840   -11.0130 c6         1 A1H      -0.044700
     23 CAK          3.5180   -17.4770    -9.5420 c6         1 A1H      -0.073400
     24 CAL          1.9780   -17.6010    -9.4490 c6         1 A1H      -0.072900
     25 CAM          1.4540   -18.7530   -10.3390 c6         1 A1H      -0.075400
     26 CAN          1.9140   -18.5730   -11.8050 c6         1 A1H      -0.072900
     27 CAO          3.4550   -18.4470   -11.9000 c6         1 A1H      -0.073400
     28 CAF          6.0770   -17.0610   -12.5390 ca         1 A1H      -0.009300
     29 CAE          6.9250   -18.0540   -13.0570 ca         1 A1H      -0.221500
     30 CAA          5.7450   -15.9600   -13.3430 ca         1 A1H      -0.221500
     31 CAB          6.2700   -15.8330   -14.6450 ca         1 A1H       0.155100
     32 OBJ          5.9740   -14.7350   -15.4360 os         1 A1H      -0.322100
     33 CBK          5.1660   -13.6390   -14.9710 c3         1 A1H       0.144900
     34 CAC          7.1400   -16.8200   -15.1660 ca         1 A1H       0.023100
     35 OBH          7.6360   -16.5930   -16.4520 os         1 A1H      -0.328100
     36 CBI          8.6910   -17.3500   -17.0710 c3         1 A1H       0.143900
     37 CAD          7.4630   -17.9550   -14.3610 ca         1 A1H       0.155100
     38 OBL          8.2880   -18.9540   -14.8500 os         1 A1H      -0.322100
     39 CBM          8.7010   -20.0900   -14.0710 c3         1 A1H       0.144900
     40 HCC         16.6510   -16.7110   -16.2220 hc         1 A1H       0.037033
     41 HBG         15.6960   -18.1150   -16.7470 hc         1 A1H       0.037033
     42 HCB         15.4830   -16.5420   -17.5510 hc         1 A1H       0.037033
     43 HCA         14.5870   -15.5750   -15.4030 hc         1 A1H       0.056700
     44 HBF         14.7970   -17.1340   -14.6070 hc         1 A1H       0.056700
     45 HB9         13.1340   -18.1700   -16.1810 h1         1 A1H       0.061200
     46 HBE         12.9200   -16.6020   -16.9800 h1         1 A1H       0.061200
     47 HBD         11.7090   -14.6430   -15.5870 h4         1 A1H       0.160000
     48 HBA         10.2060   -17.4750   -12.6690 h4         1 A1H       0.047100
     49 HAY         10.0220   -13.6220   -13.5330 h1         1 A1H       0.065200
     50 HB8          8.6780   -14.7300   -13.8960 h1         1 A1H       0.065200
     51 HA           7.6730   -13.9300    -9.3660 h1         1 A1H       0.108700
     52 HB2         10.2300   -13.9050    -9.2090 hc         1 A1H       0.058700
     53 HB1          9.3420   -14.7050    -7.9300 hc         1 A1H       0.058700
     54 HB4         11.2840   -16.0800    -8.5280 hc         1 A1H       0.050700
     55 HB3         10.8190   -16.1320   -10.2230 hc         1 A1H       0.050700
     56 HB6          9.2080   -17.2560    -7.8560 hc         1 A1H       0.047700
     57 HB5         10.0770   -18.2080    -9.0530 hc         1 A1H       0.047700
     58 HB7          7.6240   -18.0930    -9.4460 h1         1 A1H       0.053200
     59 HAU          8.5660   -17.5230   -10.8370 h1         1 A1H       0.053200
     60 HAG          5.9770   -18.0810   -10.6890 hc         1 A1H       0.062700
     61 HAJ          3.5740   -16.3430   -11.3940 hc         1 A1H       0.072700
     62 HAL          3.9830   -18.3760    -9.1140 hc         1 A1H       0.041200
     63 HAK          3.8460   -16.6340    -8.9180 hc         1 A1H       0.041200
     64 HAN          1.5110   -16.6540    -9.7560 hc         1 A1H       0.040200
     65 HAM          1.6800   -17.7710    -8.4060 hc         1 A1H       0.040200
     66 HAP          0.3570   -18.7910   -10.2930 hc         1 A1H       0.037200
     67 HAO          1.8170   -19.7150    -9.9520 hc         1 A1H       0.037200
     68 HAR          1.4430   -17.6780   -12.2340 hc         1 A1H       0.040200
     69 HAQ          1.5720   -19.4250   -12.4090 hc         1 A1H       0.040200
     70 HAS          3.9200   -19.3950   -11.5960 hc         1 A1H       0.041200
     71 HAT          3.7310   -18.2890   -12.9510 hc         1 A1H       0.041200
     72 HAE          7.1620   -18.9050   -12.4270 ha         1 A1H       0.128000
     73 HAA          5.0910   -15.1980   -12.9340 ha         1 A1H       0.128000
     74 HCG          5.0760   -12.8750   -15.7530 h1         1 A1H       0.042367
     75 HBK          4.1560   -13.9810   -14.7120 h1         1 A1H       0.042367
     76 HCF          5.6180   -13.1690   -14.0880 h1         1 A1H       0.042367
     77 HBI          8.9610   -16.9000   -18.0340 h1         1 A1H       0.035700
     78 HCD          9.5880   -17.3600   -16.4400 h1         1 A1H       0.035700
     79 HCE          8.3740   -18.3820   -17.2650 h1         1 A1H       0.035700
     80 HCI          9.3680   -20.7310   -14.6610 h1         1 A1H       0.042367
     81 HBM          9.2450   -19.7710   -13.1730 h1         1 A1H       0.042367
     82 HCH          7.8350   -20.6910   -13.7670 h1         1 A1H       0.042367
@<TRIPOS>BOND
     1     1     2 1   
     2     1    40 1   
     3     1    41 1   
     4     1    42 1   
     5     2     3 1   
     6     2    43 1   
     7     2    44 1   
     8     3     4 1   
     9     3    45 1   
    10     3    46 1   
    11     4     5 1   
    12     4     6 1   
    13     5     8 2   
    14     5    47 1   
    15     6     7 2   
    16     7     8 1   
    17     7    48 1   
    18     8     9 1   
    19     9    10 1   
    20     9    49 1   
    21     9    50 1   
    22    10    11 1   
    23    11    12 2   
    24    11    13 1   
    25    13    14 1   
    26    13    18 1   
    27    13    51 1   
    28    14    15 1   
    29    14    52 1   
    30    14    53 1   
    31    15    16 1   
    32    15    54 1   
    33    15    55 1   
    34    16    17 1   
    35    16    56 1   
    36    16    57 1   
    37    17    18 1   
    38    17    58 1   
    39    17    59 1   
    40    18    19 1   
    41    19    20 2   
    42    19    21 1   
    43    21    22 1   
    44    21    28 1   
    45    21    60 1   
    46    22    23 1   
    47    22    27 1   
    48    22    61 1   
    49    23    24 1   
    50    23    62 1   
    51    23    63 1   
    52    24    25 1   
    53    24    64 1   
    54    24    65 1   
    55    25    26 1   
    56    25    66 1   
    57    25    67 1   
    58    26    27 1   
    59    26    68 1   
    60    26    69 1   
    61    27    70 1   
    62    27    71 1   
    63    28    29 ar  
    64    28    30 ar  
    65    29    37 ar  
    66    29    72 1   
    67    30    31 ar  
    68    30    73 1   
    69    31    32 1   
    70    31    34 ar  
    71    32    33 1   
    72    33    74 1   
    73    33    75 1   
    74    33    76 1   
    75    34    35 1   
    76    34    37 ar  
    77    35    36 1   
    78    36    77 1   
    79    36    78 1   
    80    36    79 1   
    81    37    38 1   
    82    38    39 1   
    83    39    80 1   
    84    39    81 1   
    85    39    82 1   
@<TRIPOS>SUBSTRUCTURE
     1 A1H         1 TEMP              0 ****  ****    0 ROOT
