@<TRIPOS>MOLECULE
A1H
   72    75     1     0     0
SMALL
No Charge or Current Charge


@<TRIPOS>ATOM
      1 ClBE        -9.8800    18.0870   -14.2000 cl         1 A1H      -0.120000
      2 CBA        -10.9190    16.7860   -14.6880 cc         1 A1H       0.375000
      3 NBB        -12.1160    17.0560   -15.2970 nc         1 A1H      -0.623000
      4 CBC        -12.7420    15.9170   -15.5770 cd         1 A1H       0.392300
      5 SBD        -11.8990    14.4400   -15.1120 ss         1 A1H       0.083600
      6 CAZ        -10.6130    15.4620   -14.4990 cd         1 A1H      -0.293300
      7 CAY         -9.3850    14.8730   -13.8670 c3         1 A1H       0.244900
      8 OAX         -9.3720    15.2780   -12.4920 os         1 A1H      -0.415100
      9 C           -8.3300    14.8650   -11.7060 c          1 A1H       0.574100
     10 O           -7.3990    14.2030   -12.1480 o          1 A1H      -0.493000
     11 CA          -8.2730    15.5540   -10.3050 c6         1 A1H       0.046700
     12 CB          -9.6840    15.7660    -9.6690 c6         1 A1H      -0.075400
     13 CAS        -10.4000    17.0450   -10.1430 c6         1 A1H      -0.077400
     14 CAT         -9.4870    18.2490    -9.8970 c6         1 A1H      -0.096400
     15 CAU         -8.1240    18.0880   -10.6010 c6         1 A1H       0.103000
     16 N           -7.4110    16.7990   -10.3210 n          1 A1H      -0.395800
     17 CAH         -6.0130    16.6470   -10.5450 c          1 A1H       0.622100
     18 OAP         -5.4790    15.5730   -10.2880 o          1 A1H      -0.609100
     19 CAG         -5.2110    17.7700   -11.2690 c3         1 A1H      -0.085400
     20 CAJ         -3.6680    17.7610   -10.9820 c6         1 A1H      -0.045700
     21 CAK         -3.3670    17.9900    -9.4700 c6         1 A1H      -0.073900
     22 CAL         -1.8460    17.9810    -9.1800 c6         1 A1H      -0.072900
     23 CAM         -1.1060    19.0330   -10.0390 c6         1 A1H      -0.076400
     24 CAN         -1.3890    18.8170   -11.5440 c6         1 A1H      -0.072900
     25 CAO         -2.9100    18.8220   -11.8370 c6         1 A1H      -0.073900
     26 CAF         -5.5430    17.6620   -12.7630 ca         1 A1H      -0.009300
     27 CAE         -5.3060    16.4710   -13.4650 ca         1 A1H      -0.216000
     28 CAA         -6.1210    18.7500   -13.4390 ca         1 A1H      -0.216000
     29 CAB         -6.4890    18.6580   -14.8010 ca         1 A1H       0.153100
     30 OBH         -7.0480    19.7500   -15.4450 os         1 A1H      -0.325100
     31 CBI         -7.3360    20.9940   -14.7820 c3         1 A1H       0.143900
     32 CAC         -6.2770    17.4310   -15.5010 ca         1 A1H       0.029100
     33 OBF         -6.6300    17.2060   -16.8330 os         1 A1H      -0.328100
     34 CBG         -7.4100    18.1050   -17.6410 c3         1 A1H       0.148900
     35 CAD         -5.6730    16.3470   -14.8200 ca         1 A1H       0.153100
     36 OBJ         -5.4710    15.1650   -15.5160 os         1 A1H      -0.325100
     37 CBK         -4.8840    13.9990   -14.9130 c3         1 A1H       0.143900
     38 HBC        -13.7090    15.8480   -16.0600 h5         1 A1H       0.058100
     39 HAY         -9.4080    13.7780   -13.9530 h1         1 A1H       0.078700
     40 HB8         -8.4920    15.2400   -14.3920 h1         1 A1H       0.078700
     41 HA          -7.7730    14.8020    -9.6790 h1         1 A1H       0.113700
     42 HB2        -10.3170    14.8880    -9.8550 hc         1 A1H       0.062700
     43 HB1         -9.5660    15.8190    -8.5780 hc         1 A1H       0.062700
     44 HB4        -11.3420    17.1710    -9.5920 hc         1 A1H       0.049200
     45 HB3        -10.6710    16.9850   -11.2050 hc         1 A1H       0.049200
     46 HB6         -9.3240    18.3730    -8.8170 hc         1 A1H       0.049700
     47 HB5         -9.9760    19.1690   -10.2450 hc         1 A1H       0.049700
     48 HB7         -7.5120    18.9380   -10.2770 h1         1 A1H       0.053700
     49 HAU         -8.2690    18.1770   -11.6870 h1         1 A1H       0.053700
     50 HAG         -5.6000    18.7360   -10.9410 hc         1 A1H       0.062700
     51 HAJ         -3.2950    16.7670   -11.2670 hc         1 A1H       0.071700
     52 HAL         -3.7940    18.9500    -9.1460 hc         1 A1H       0.041200
     53 HAK         -3.8500    17.2170    -8.8580 hc         1 A1H       0.041200
     54 HAN         -1.4360    16.9820    -9.3830 hc         1 A1H       0.040450
     55 HAM         -1.6690    18.1800    -8.1140 hc         1 A1H       0.040450
     56 HAP         -0.0250    18.9770    -9.8500 hc         1 A1H       0.037700
     57 HAO         -1.4230    20.0430    -9.7430 hc         1 A1H       0.037700
     58 HAR         -0.9540    17.8610   -11.8690 hc         1 A1H       0.040450
     59 HAQ         -0.8940    19.6010   -12.1320 hc         1 A1H       0.040450
     60 HAS         -3.3190    19.8230   -11.6380 hc         1 A1H       0.041200
     61 HAT         -3.0620    18.6320   -12.9080 hc         1 A1H       0.041200
     62 HAE         -4.8530    15.6390   -12.9360 ha         1 A1H       0.127500
     63 HAA         -6.2840    19.6680   -12.8850 ha         1 A1H       0.127500
     64 HCC         -7.7890    21.7020   -15.4870 h1         1 A1H       0.042700
     65 HBI         -8.0420    20.8420   -13.9550 h1         1 A1H       0.042700
     66 HCB         -6.4190    21.4490   -14.3880 h1         1 A1H       0.042700
     67 HCA         -7.6180    17.6480   -18.6170 h1         1 A1H       0.033367
     68 HBG         -8.3720    18.3270   -17.1620 h1         1 A1H       0.033367
     69 HB9         -6.8690    19.0420   -17.8220 h1         1 A1H       0.033367
     70 HCE         -4.8190    13.1850   -15.6460 h1         1 A1H       0.042700
     71 HBK         -3.8690    14.2140   -14.5540 h1         1 A1H       0.042700
     72 HCD         -5.4900    13.6480   -14.0690 h1         1 A1H       0.042700
@<TRIPOS>BOND
     1     1     2 1   
     2     2     3 1   
     3     2     6 2   
     4     3     4 2   
     5     4     5 1   
     6     4    38 1   
     7     5     6 1   
     8     6     7 1   
     9     7     8 1   
    10     7    39 1   
    11     7    40 1   
    12     8     9 1   
    13     9    10 2   
    14     9    11 1   
    15    11    12 1   
    16    11    16 1   
    17    11    41 1   
    18    12    13 1   
    19    12    42 1   
    20    12    43 1   
    21    13    14 1   
    22    13    44 1   
    23    13    45 1   
    24    14    15 1   
    25    14    46 1   
    26    14    47 1   
    27    15    16 1   
    28    15    48 1   
    29    15    49 1   
    30    16    17 1   
    31    17    18 2   
    32    17    19 1   
    33    19    20 1   
    34    19    26 1   
    35    19    50 1   
    36    20    21 1   
    37    20    25 1   
    38    20    51 1   
    39    21    22 1   
    40    21    52 1   
    41    21    53 1   
    42    22    23 1   
    43    22    54 1   
    44    22    55 1   
    45    23    24 1   
    46    23    56 1   
    47    23    57 1   
    48    24    25 1   
    49    24    58 1   
    50    24    59 1   
    51    25    60 1   
    52    25    61 1   
    53    26    27 ar  
    54    26    28 ar  
    55    27    35 ar  
    56    27    62 1   
    57    28    29 ar  
    58    28    63 1   
    59    29    30 1   
    60    29    32 ar  
    61    30    31 1   
    62    31    64 1   
    63    31    65 1   
    64    31    66 1   
    65    32    33 1   
    66    32    35 ar  
    67    33    34 1   
    68    34    67 1   
    69    34    68 1   
    70    34    69 1   
    71    35    36 1   
    72    36    37 1   
    73    37    70 1   
    74    37    71 1   
    75    37    72 1   
@<TRIPOS>SUBSTRUCTURE
     1 A1H         1 TEMP              0 ****  ****    0 ROOT
