@<TRIPOS>MOLECULE
A1H
   25    26     1     0     0
SMALL
abcg2


@<TRIPOS>ATOM
      1 C1          21.8220    24.4860    20.9620 c3         1 A1H       0.109800
      2 C2          22.3370    24.6230    18.5240 c5         1 A1H       0.412000
      3 C3          22.4200    26.8730    18.6330 c2         1 A1H       0.514100
      4 C7          22.8520    22.2210    24.6900 ca         1 A1H      -0.218000
      5 C8          24.1870    21.9980    24.9530 ca         1 A1H       0.228000
      6 C9          25.1930    22.5290    24.1650 ca         1 A1H      -0.184000
      7 C10         24.8300    23.3010    23.0810 ca         1 A1H      -0.012000
      8 N2          22.4870    25.8320    17.7300 nu         1 A1H      -0.880400
      9 C4          23.2280    24.3940    21.5420 c          1 A1H       0.560700
     10 C5          23.4930    23.5530    22.7500 ca         1 A1H      -0.237600
     11 C6          22.5340    22.9940    23.5900 ca         1 A1H       0.240000
     12 N1          21.7090    25.1860    19.7220 nh         1 A1H      -0.444700
     13 F1          24.5120    21.2470    26.0050 f          1 A1H      -0.164000
     14 N3          21.9850    26.5540    19.7830 n2         1 A1H      -0.465400
     15 H1          21.1740    24.9730    21.6940 h1         1 A1H       0.089700
     16 H2          21.4230    23.4760    20.8290 h1         1 A1H       0.089700
     17 H3          23.3010    24.1260    18.7120 h2         1 A1H       0.045700
     18 H4          21.6730    23.8980    18.0470 h2         1 A1H       0.045700
     19 H6          22.6650    27.8860    18.3460 h5         1 A1H       0.058800
     20 H7          22.0740    21.8080    25.3190 ha         1 A1H       0.155000
     21 H8          26.2330    22.3420    24.3940 ha         1 A1H       0.143000
     22 H9          25.6070    23.7210    22.4560 ha         1 A1H       0.142000
     23 H5          23.2310    25.8520    17.0500 hn         1 A1H       0.466000
     24 F2          21.2340    23.2010    23.3630 f          1 A1H      -0.168000
     25 O1          24.1500    24.9780    21.0180 o          1 A1H      -0.525100
@<TRIPOS>BOND
     1     1     9 1   
     2     1    12 1   
     3     1    15 1   
     4     1    16 1   
     5     2     8 1   
     6     2    12 1   
     7     2    17 1   
     8     2    18 1   
     9     3     8 1   
    10     3    14 2   
    11     3    19 1   
    12     4     5 ar  
    13     4    11 ar  
    14     4    20 1   
    15     5     6 ar  
    16     5    13 1   
    17     6     7 ar  
    18     6    21 1   
    19     7    10 ar  
    20     7    22 1   
    21     8    23 1   
    22     9    10 1   
    23     9    25 2   
    24    10    11 ar  
    25    11    24 1   
    26    12    14 1   
@<TRIPOS>SUBSTRUCTURE
     1 A1H         1 TEMP              0 ****  ****    0 ROOT
