@<TRIPOS>MOLECULE
A1H
   75    78     1     0     0
SMALL
No Charge or Current Charge


@<TRIPOS>ATOM
      1 N1          18.7970    59.6580   -37.6740 n          1 A1H      -0.420800
      2 C7          19.1800    61.9940   -36.8590 c6         1 A1H      -0.093400
      3 C8          18.5640    61.1140   -37.9750 c6         1 A1H       0.099400
      4 N2          17.9820    57.5750   -36.8240 ns         1 A1H      -0.180000
      5 C9          19.8710    58.9580   -38.4310 c3         1 A1H       0.177000
      6 O1          17.1090    59.5560   -36.1070 o          1 A1H      -0.632100
      7 C1          10.7690    62.6500   -38.4290 c3         1 A1H       0.168600
      8 C5          17.0890    63.3830   -36.7520 c6         1 A1H       0.086000
      9 C6          18.6190    63.4170   -36.9350 c6         1 A1H      -0.096400
     10 N3          16.5470    60.6440   -39.2370 nc         1 A1H      -0.759300
     11 C4          15.0030    62.5280   -37.7940 c          1 A1H       0.597200
     12 O4          12.2980    60.9040   -39.7780 o          1 A1H      -0.493000
     13 C3          14.3780    61.6150   -38.7750 cd         1 A1H      -0.394400
     14 C2          12.8930    61.6430   -39.0040 c          1 A1H       0.648300
     15 O           12.1960    62.5680   -38.2730 os         1 A1H      -0.430100
     16 C           10.2660    63.7610   -37.4930 c3         1 A1H      -0.095100
     17 C28         15.2090    60.7570   -39.4680 cc         1 A1H       0.457700
     18 C29         15.4020    59.0740   -41.2220 c3         1 A1H       0.162900
     19 C27         17.0810    61.4140   -38.3000 cd         1 A1H       0.574900
     20 N           16.3890    62.4320   -37.6650 n          1 A1H      -0.288300
     21 O2          14.3960    63.3490   -37.1210 o          1 A1H      -0.531000
     22 C11         21.2010    59.7230   -38.3880 ca         1 A1H      -0.110300
     23 C16         21.9760    59.6560   -37.2110 ca         1 A1H      -0.097000
     24 C15         23.1920    60.3540   -37.1120 ca         1 A1H      -0.112000
     25 C14         23.6470    61.1300   -38.1900 ca         1 A1H      -0.101000
     26 C13         22.8840    61.2070   -39.3660 ca         1 A1H      -0.112000
     27 C12         21.6680    60.5100   -39.4670 ca         1 A1H      -0.097000
     28 C10         19.3990    58.5830   -39.8550 c3         1 A1H      -0.107100
     29 C17         17.9070    58.9580   -36.8180 c          1 A1H       0.659100
     30 C18         17.1530    56.6300   -36.1700 ca         1 A1H      -0.044000
     31 C26         17.7700    55.7640   -35.2480 ca         1 A1H      -0.095000
     32 C25         17.0160    54.8110   -34.5470 ca         1 A1H      -0.111000
     33 C24         15.6370    54.7110   -34.7730 ca         1 A1H      -0.104000
     34 C23         15.0150    55.5540   -35.7070 ca         1 A1H      -0.103000
     35 C19         15.7570    56.5190   -36.4270 ca         1 A1H      -0.060300
     36 C20         15.0320    57.3660   -37.4920 c3         1 A1H      -0.018400
     37 C22         13.9600    58.2840   -36.8590 c3         1 A1H      -0.087600
     38 C21         14.4250    56.4790   -38.6030 c3         1 A1H      -0.087600
     39 H11         20.2740    62.0120   -36.9500 hc         1 A1H       0.070700
     40 H12         18.9570    61.5700   -35.8700 hc         1 A1H       0.070700
     41 H           19.1070    61.3650   -38.8950 h1         1 A1H       0.077700
     42 H21         18.7070    57.1770   -37.4040 hn         1 A1H       0.153000
     43 H1          20.0940    58.0070   -37.9320 h1         1 A1H       0.058700
     44 H6          10.2890    61.7000   -38.1590 h1         1 A1H       0.043200
     45 H5          10.5010    62.8970   -39.4650 h1         1 A1H       0.043200
     46 H7          16.6970    64.3990   -36.9050 h1         1 A1H       0.079200
     47 H8          16.8570    63.1010   -35.7140 h1         1 A1H       0.079200
     48 H9          18.8720    63.8730   -37.9030 hc         1 A1H       0.057200
     49 H10         19.0740    64.0480   -36.1590 hc         1 A1H       0.057200
     50 H4           9.1780    63.8630   -37.5750 hc         1 A1H       0.044700
     51 H2          10.5120    63.5280   -36.4500 hc         1 A1H       0.044700
     52 H3          10.7230    64.7230   -37.7550 hc         1 A1H       0.044700
     53 H34         14.7570    58.5280   -41.9210 h1         1 A1H       0.047700
     54 H33         16.1490    59.6270   -41.8070 h1         1 A1H       0.047700
     55 H35         15.9240    58.3400   -40.5960 h1         1 A1H       0.047700
     56 H20         21.6310    59.0650   -36.3650 ha         1 A1H       0.116500
     57 H19         23.7790    60.2950   -36.1980 ha         1 A1H       0.117500
     58 H18         24.5880    61.6710   -38.1130 ha         1 A1H       0.117000
     59 H17         23.2340    61.8110   -40.2000 ha         1 A1H       0.117500
     60 H16         21.0960    60.5970   -40.3860 ha         1 A1H       0.116500
     61 H15         20.1960    58.0670   -40.4020 hc         1 A1H       0.047367
     62 H13         18.5340    57.9110   -39.8030 hc         1 A1H       0.047367
     63 H14         19.0980    59.4680   -40.4260 hc         1 A1H       0.047367
     64 H32         18.8390    55.8400   -35.0620 ha         1 A1H       0.117000
     65 H31         17.5010    54.1520   -33.8290 ha         1 A1H       0.115000
     66 H30         15.0490    53.9740   -34.2310 ha         1 A1H       0.114000
     67 H29         13.9470    55.4480   -35.8780 ha         1 A1H       0.116000
     68 H22         15.7400    58.0240   -38.0030 hc         1 A1H       0.047700
     69 H26         13.5010    58.9230   -37.6220 hc         1 A1H       0.038367
     70 H28         13.1650    57.6980   -36.3840 hc         1 A1H       0.038367
     71 H27         14.4080    58.9330   -36.0980 hc         1 A1H       0.038367
     72 H23         13.9720    57.0980   -39.3860 hc         1 A1H       0.038367
     73 H24         15.2040    55.8610   -39.0660 hc         1 A1H       0.038367
     74 H25         13.6490    55.8150   -38.2070 hc         1 A1H       0.038367
     75 O3          14.6180    59.9710   -40.4160 os         1 A1H      -0.303100
@<TRIPOS>BOND
     1     1     3 1   
     2     1     5 1   
     3     1    29 1   
     4     2     3 1   
     5     2     9 1   
     6     2    39 1   
     7     2    40 1   
     8     3    19 1   
     9     3    41 1   
    10     4    29 1   
    11     4    30 1   
    12     4    42 1   
    13     5    22 1   
    14     5    28 1   
    15     5    43 1   
    16     6    29 2   
    17     7    15 1   
    18     7    16 1   
    19     7    44 1   
    20     7    45 1   
    21     8     9 1   
    22     8    20 1   
    23     8    46 1   
    24     8    47 1   
    25     9    48 1   
    26     9    49 1   
    27    10    17 1   
    28    10    19 2   
    29    11    13 1   
    30    11    20 1   
    31    11    21 2   
    32    12    14 2   
    33    13    14 1   
    34    13    17 2   
    35    14    15 1   
    36    16    50 1   
    37    16    51 1   
    38    16    52 1   
    39    17    75 1   
    40    18    53 1   
    41    18    54 1   
    42    18    55 1   
    43    18    75 1   
    44    19    20 1   
    45    22    23 ar  
    46    22    27 ar  
    47    23    24 ar  
    48    23    56 1   
    49    24    25 ar  
    50    24    57 1   
    51    25    26 ar  
    52    25    58 1   
    53    26    27 ar  
    54    26    59 1   
    55    27    60 1   
    56    28    61 1   
    57    28    62 1   
    58    28    63 1   
    59    30    31 ar  
    60    30    35 ar  
    61    31    32 ar  
    62    31    64 1   
    63    32    33 ar  
    64    32    65 1   
    65    33    34 ar  
    66    33    66 1   
    67    34    35 ar  
    68    34    67 1   
    69    35    36 1   
    70    36    37 1   
    71    36    38 1   
    72    36    68 1   
    73    37    69 1   
    74    37    70 1   
    75    37    71 1   
    76    38    72 1   
    77    38    73 1   
    78    38    74 1   
@<TRIPOS>SUBSTRUCTURE
     1 A1H         1 TEMP              0 ****  ****    0 ROOT
