@<TRIPOS>MOLECULE
A1H
   75    78     1     0     0
SMALL
abcg2


@<TRIPOS>ATOM
      1 N1          18.7680    59.6470   -37.8400 n          1 A1H      -0.420800
      2 C7          19.2680    61.8900   -36.8790 c6         1 A1H      -0.093400
      3 C8          18.6370    61.0820   -38.0060 c6         1 A1H       0.099400
      4 N2          17.8510    57.7000   -36.9270 ns         1 A1H      -0.180000
      5 C9          19.7650    58.9300   -38.6400 c3         1 A1H       0.177000
      6 O1          17.1360    59.7460   -36.2900 o          1 A1H      -0.632100
      7 C1          10.9850    62.2240   -38.1750 c3         1 A1H       0.168600
      8 C5          17.2570    63.3210   -36.7260 c6         1 A1H       0.086000
      9 C6          18.7530    63.3120   -36.9360 c6         1 A1H      -0.096400
     10 N3          16.6190    60.7220   -39.2390 nc         1 A1H      -0.759300
     11 C4          15.1930    62.7090   -37.8930 c          1 A1H       0.597200
     12 O4          12.6530    62.1140   -40.2720 o          1 A1H      -0.493000
     13 C3          14.5680    61.8810   -38.8730 cd         1 A1H      -0.394400
     14 C2          13.1270    62.0330   -39.1650 c          1 A1H       0.648300
     15 O           12.4020    62.0350   -38.0550 os         1 A1H      -0.430100
     16 C           10.3990    62.1960   -36.7840 c3         1 A1H      -0.095100
     17 C28         15.3440    60.9590   -39.5480 cc         1 A1H       0.457700
     18 C29         15.5770    59.2780   -41.2030 c3         1 A1H       0.162900
     19 C27         17.1870    61.4340   -38.3060 cd         1 A1H       0.574900
     20 N           16.5730    62.4560   -37.6940 n          1 A1H      -0.288300
     21 O2          14.6580    63.6060   -37.2630 o          1 A1H      -0.531000
     22 C11         21.1090    59.6230   -38.5170 ca         1 A1H      -0.110300
     23 C16         21.8240    59.4780   -37.3280 ca         1 A1H      -0.097000
     24 C15         23.0340    60.1260   -37.1430 ca         1 A1H      -0.112000
     25 C14         23.5510    60.9340   -38.1500 ca         1 A1H      -0.101000
     26 C13         22.8530    61.0780   -39.3390 ca         1 A1H      -0.112000
     27 C12         21.6400    60.4220   -39.5220 ca         1 A1H      -0.097000
     28 C10         19.2930    58.7000   -40.0680 c3         1 A1H      -0.107100
     29 C17         17.8810    59.0610   -36.9850 c          1 A1H       0.659100
     30 C18         16.9310    57.0420   -36.0650 ca         1 A1H      -0.044000
     31 C26         17.4000    56.5960   -34.8340 ca         1 A1H      -0.095000
     32 C25         16.5630    55.9190   -33.9610 ca         1 A1H      -0.111000
     33 C24         15.2460    55.6850   -34.3300 ca         1 A1H      -0.104000
     34 C23         14.7810    56.1290   -35.5570 ca         1 A1H      -0.103000
     35 C19         15.6050    56.8190   -36.4480 ca         1 A1H      -0.060300
     36 C20         15.0500    57.2920   -37.7720 c3         1 A1H      -0.018400
     37 C22         13.9040    58.2850   -37.5730 c3         1 A1H      -0.087600
     38 C21         14.6130    56.1140   -38.6420 c3         1 A1H      -0.087600
     39 H11         20.3520    61.8560   -36.9870 hc         1 A1H       0.070700
     40 H12         19.0240    61.4510   -35.9110 hc         1 A1H       0.070700
     41 H           19.1610    61.3460   -38.9300 h1         1 A1H       0.077700
     42 H21         18.2520    57.1450   -37.6660 hn         1 A1H       0.153000
     43 H1          19.9080    57.9560   -38.1710 h1         1 A1H       0.058700
     44 H6          10.5570    61.4310   -38.7930 h1         1 A1H       0.043200
     45 H5          10.7790    63.1780   -38.6660 h1         1 A1H       0.043200
     46 H7          16.8550    64.3240   -36.8430 h1         1 A1H       0.079200
     47 H8          17.0100    62.9800   -35.7180 h1         1 A1H       0.079200
     48 H9          19.0010    63.7780   -37.8950 hc         1 A1H       0.057200
     49 H10         19.2100    63.9250   -36.1590 hc         1 A1H       0.057200
     50 H4           9.3210    62.3400   -36.8460 hc         1 A1H       0.044700
     51 H2          10.5810    61.2410   -36.2920 hc         1 A1H       0.044700
     52 H3          10.8070    62.9920   -36.1610 hc         1 A1H       0.044700
     53 H34         14.9050    58.8310   -41.9300 h1         1 A1H       0.047700
     54 H33         16.4210    59.7340   -41.7210 h1         1 A1H       0.047700
     55 H35         15.9490    58.5050   -40.5310 h1         1 A1H       0.047700
     56 H20         21.4220    58.8540   -36.5380 ha         1 A1H       0.116500
     57 H19         23.5750    60.0030   -36.2140 ha         1 A1H       0.117500
     58 H18         24.4950    61.4440   -38.0080 ha         1 A1H       0.117000
     59 H17         23.2490    61.7010   -40.1300 ha         1 A1H       0.117500
     60 H16         21.1130    60.5470   -40.4590 ha         1 A1H       0.116500
     61 H15         20.0490    58.1640   -40.6410 hc         1 A1H       0.047367
     62 H13         18.3820    58.1020   -40.0640 hc         1 A1H       0.047367
     63 H14         19.0660    59.6330   -40.5830 hc         1 A1H       0.047367
     64 H32         18.4320    56.7830   -34.5680 ha         1 A1H       0.117000
     65 H31         16.9370    55.5760   -33.0050 ha         1 A1H       0.115000
     66 H30         14.5790    55.1540   -33.6620 ha         1 A1H       0.114000
     67 H29         13.7500    55.9360   -35.8290 ha         1 A1H       0.116000
     68 H22         15.8430    57.8130   -38.3100 hc         1 A1H       0.047700
     69 H26         13.5430    58.6440   -38.5370 hc         1 A1H       0.038367
     70 H28         13.0590    57.8270   -37.0550 hc         1 A1H       0.038367
     71 H27         14.2260    59.1510   -36.9930 hc         1 A1H       0.038367
     72 H23         14.2610    56.4670   -39.6130 hc         1 A1H       0.038367
     73 H24         15.4380    55.4220   -38.8170 hc         1 A1H       0.038367
     74 H25         13.7980    55.5520   -38.1810 hc         1 A1H       0.038367
     75 O3          14.7950    60.2490   -40.5130 os         1 A1H      -0.303100
@<TRIPOS>BOND
     1     1     3 1   
     2     1     5 1   
     3     1    29 1   
     4     2     3 1   
     5     2     9 1   
     6     2    39 1   
     7     2    40 1   
     8     3    19 1   
     9     3    41 1   
    10     4    29 1   
    11     4    30 1   
    12     4    42 1   
    13     5    22 1   
    14     5    28 1   
    15     5    43 1   
    16     6    29 2   
    17     7    15 1   
    18     7    16 1   
    19     7    44 1   
    20     7    45 1   
    21     8     9 1   
    22     8    20 1   
    23     8    46 1   
    24     8    47 1   
    25     9    48 1   
    26     9    49 1   
    27    10    17 1   
    28    10    19 2   
    29    11    13 1   
    30    11    20 1   
    31    11    21 2   
    32    12    14 2   
    33    13    14 1   
    34    13    17 2   
    35    14    15 1   
    36    16    50 1   
    37    16    51 1   
    38    16    52 1   
    39    17    75 1   
    40    18    53 1   
    41    18    54 1   
    42    18    55 1   
    43    18    75 1   
    44    19    20 1   
    45    22    23 ar  
    46    22    27 ar  
    47    23    24 ar  
    48    23    56 1   
    49    24    25 ar  
    50    24    57 1   
    51    25    26 ar  
    52    25    58 1   
    53    26    27 ar  
    54    26    59 1   
    55    27    60 1   
    56    28    61 1   
    57    28    62 1   
    58    28    63 1   
    59    30    31 ar  
    60    30    35 ar  
    61    31    32 ar  
    62    31    64 1   
    63    32    33 ar  
    64    32    65 1   
    65    33    34 ar  
    66    33    66 1   
    67    34    35 ar  
    68    34    67 1   
    69    35    36 1   
    70    36    37 1   
    71    36    38 1   
    72    36    68 1   
    73    37    69 1   
    74    37    70 1   
    75    37    71 1   
    76    38    72 1   
    77    38    73 1   
    78    38    74 1   
@<TRIPOS>SUBSTRUCTURE
     1 A1H         1 TEMP              0 ****  ****    0 ROOT
