@<TRIPOS>MOLECULE
A1H
   25    26     1     0     0
SMALL
No Charge or Current Charge


@<TRIPOS>ATOM
      1 C1          21.8960    24.6940    21.0920 c3         1 A1H       0.109800
      2 C2          22.7250    24.6390    18.6130 c5         1 A1H       0.412000
      3 C3          21.8580    26.6960    18.2170 c2         1 A1H       0.514100
      4 C7          22.8300    22.2650    24.7600 ca         1 A1H      -0.218000
      5 C8          24.1200    21.7370    24.8720 ca         1 A1H       0.228000
      6 C9          25.1330    22.1560    24.0010 ca         1 A1H      -0.184000
      7 C10         24.8530    23.1070    23.0040 ca         1 A1H      -0.012000
      8 N2          22.6030    25.7050    17.6070 nu         1 A1H      -0.880400
      9 C4          23.2860    24.6570    21.7850 c          1 A1H       0.560700
     10 C5          23.5510    23.6400    22.8700 ca         1 A1H      -0.237600
     11 C6          22.5460    23.2130    23.7670 ca         1 A1H       0.240000
     12 N1          21.8460    25.1760    19.6800 nh         1 A1H      -0.444700
     13 F1          24.3920    20.8250    25.8300 f          1 A1H      -0.164000
     14 N3          21.3820    26.4140    19.3720 n2         1 A1H      -0.465400
     15 H1          21.2450    25.3120    21.7210 h1         1 A1H       0.089700
     16 H2          21.4980    23.6720    21.1280 h1         1 A1H       0.089700
     17 H3          23.7610    24.5320    18.9610 h2         1 A1H       0.045700
     18 H4          22.3410    23.6830    18.2320 h2         1 A1H       0.045700
     19 H6          21.7270    27.6390    17.6780 h5         1 A1H       0.058800
     20 H7          22.0510    21.9470    25.4470 ha         1 A1H       0.155000
     21 H8          26.1340    21.7440    24.0980 ha         1 A1H       0.143000
     22 H9          25.6510    23.4220    22.3320 ha         1 A1H       0.142000
     23 H5          23.4380    26.0270    17.1230 hn         1 A1H       0.466000
     24 F2          21.2990    23.7280    23.7170 f          1 A1H      -0.168000
     25 O1          24.1870    25.4230    21.4500 o          1 A1H      -0.525100
@<TRIPOS>BOND
     1     1     9 1   
     2     1    12 1   
     3     1    15 1   
     4     1    16 1   
     5     2     8 1   
     6     2    12 1   
     7     2    17 1   
     8     2    18 1   
     9     3     8 1   
    10     3    14 2   
    11     3    19 1   
    12     4     5 ar  
    13     4    11 ar  
    14     4    20 1   
    15     5     6 ar  
    16     5    13 1   
    17     6     7 ar  
    18     6    21 1   
    19     7    10 ar  
    20     7    22 1   
    21     8    23 1   
    22     9    10 1   
    23     9    25 2   
    24    10    11 ar  
    25    11    24 1   
    26    12    14 1   
@<TRIPOS>SUBSTRUCTURE
     1 A1H         1 TEMP              0 ****  ****    0 ROOT
