@<TRIPOS>MOLECULE
A1H
   47    49     1     0     0
SMALL
No Charge or Current Charge


@<TRIPOS>ATOM
      1 C14         98.5100   107.5090   112.3090 c3         1 A1H      -0.062400
      2 C13         99.8120   106.6990   112.0940 c3         1 A1H      -0.157400
      3 C12        100.9670   107.5700   111.5850 c          1 A1H       0.597100
      4 C17        112.1330   106.6930   107.9400 ca         1 A1H      -0.120000
      5 C16        107.2630   108.1020   108.3730 c6         1 A1H       0.232000
      6 C15         97.9360   108.1230   111.0150 c3         1 A1H      -0.091100
      7 C11        102.4080   108.0500   109.5740 c3         1 A1H       0.103000
      8 N3         101.3170   107.3620   110.2690 ns         1 A1H      -0.508900
      9 C10        103.7870   107.4550   109.9220 c3         1 A1H      -0.104400
     10 C8         106.7980   107.5360   110.7330 c6         1 A1H       0.163800
     11 C7         108.0650   106.6470   110.8950 c6         1 A1H       0.001800
     12 C5         108.6380   107.5190   108.6110 cc         1 A1H      -0.066300
     13 O1         101.5510   108.3710   112.3010 o          1 A1H      -0.603100
     14 C4         110.8270   106.9070   108.4020 ca         1 A1H      -0.044200
     15 C9         104.9380   108.1670   109.1790 c3         1 A1H       0.175800
     16 C1         112.6060   105.5680   110.0720 ca         1 A1H       0.092000
     17 C18        113.0290   106.0120   108.7950 ca         1 A1H      -0.087000
     18 C2         111.2840   105.7980   110.5100 ca         1 A1H      -0.052000
     19 C3         110.4240   106.4760   109.6370 ca         1 A1H      -0.081800
     20 C6         109.0420   106.8680   109.7640 cd         1 A1H      -0.122400
     21 N1         109.7680   107.5400   107.7690 na         1 A1H      -0.215700
     22 N2         106.2680   107.5260   109.3310 n3         1 A1H      -0.718600
     23 H17         97.7520   106.8500   112.7520 hc         1 A1H       0.049200
     24 H16         98.6930   108.3100   113.0370 hc         1 A1H       0.049200
     25 H14         99.6040   105.8910   111.3830 hc         1 A1H       0.054200
     26 H15        100.1040   106.2680   113.0590 hc         1 A1H       0.054200
     27 H23        112.4470   107.0380   106.9580 ha         1 A1H       0.117000
     28 H21        107.3120   109.1950   108.4920 h1         1 A1H       0.040200
     29 H22        106.9480   107.9070   107.3380 h1         1 A1H       0.040200
     30 H20         96.9950   108.6450   111.2270 hc         1 A1H       0.034700
     31 H19         98.6350   108.8470   110.5790 hc         1 A1H       0.034700
     32 H18         97.7340   107.3420   110.2710 hc         1 A1H       0.034700
     33 H13        102.3870   109.1160   109.8390 h1         1 A1H       0.052200
     34 H12        102.2370   107.9680   108.4920 h1         1 A1H       0.052200
     35 H2         100.7770   106.6740   109.7580 hn         1 A1H       0.309500
     36 H11        103.9390   107.5290   111.0040 hc         1 A1H       0.057700
     37 H10        103.7950   106.3900   109.6610 hc         1 A1H       0.057700
     38 H6         107.0480   108.5660   111.0290 h1         1 A1H       0.039200
     39 H7         106.0470   107.1740   111.4490 h1         1 A1H       0.039200
     40 H4         107.7620   105.5920   110.9140 hc         1 A1H       0.054200
     41 H5         108.5380   106.8520   111.8650 hc         1 A1H       0.054200
     42 H9         104.9840   109.2120   109.5160 h1         1 A1H       0.029200
     43 H8         104.6750   108.1870   108.1120 h1         1 A1H       0.029200
     44 H24        114.0500   105.8280   108.4710 ha         1 A1H       0.126000
     45 H3         110.9480   105.4620   111.4870 ha         1 A1H       0.131000
     46 H1         109.8050   107.9560   106.8440 hn         1 A1H       0.350000
     47 Cl1        113.7380   104.7230   111.1200 cl         1 A1H      -0.219000
@<TRIPOS>BOND
     1     1     2 1   
     2     1     6 1   
     3     1    23 1   
     4     1    24 1   
     5     2     3 1   
     6     2    25 1   
     7     2    26 1   
     8     3     8 1   
     9     3    13 2   
    10     4    14 ar  
    11     4    17 ar  
    12     4    27 1   
    13     5    12 1   
    14     5    22 1   
    15     5    28 1   
    16     5    29 1   
    17     6    30 1   
    18     6    31 1   
    19     6    32 1   
    20     7     8 1   
    21     7     9 1   
    22     7    33 1   
    23     7    34 1   
    24     8    35 1   
    25     9    15 1   
    26     9    36 1   
    27     9    37 1   
    28    10    11 1   
    29    10    22 1   
    30    10    38 1   
    31    10    39 1   
    32    11    20 1   
    33    11    40 1   
    34    11    41 1   
    35    12    20 2   
    36    12    21 1   
    37    14    19 ar  
    38    14    21 1   
    39    15    22 1   
    40    15    42 1   
    41    15    43 1   
    42    16    17 ar  
    43    16    18 ar  
    44    16    47 1   
    45    17    44 1   
    46    18    19 ar  
    47    18    45 1   
    48    19    20 1   
    49    21    46 1   
@<TRIPOS>SUBSTRUCTURE
     1 A1H         1 TEMP              0 ****  ****    0 ROOT
