@<TRIPOS>MOLECULE
A1H
   47    49     1     0     0
SMALL
abcg2


@<TRIPOS>ATOM
      1 C14         98.9490   107.1050   112.5500 c3         1 A1H      -0.062400
      2 C13         99.9060   106.5470   111.5070 c3         1 A1H      -0.157400
      3 C12        100.9750   107.5300   111.0700 c          1 A1H       0.597100
      4 C17        111.9820   106.3800   108.1320 ca         1 A1H      -0.120000
      5 C16        107.2890   108.0460   108.2600 c6         1 A1H       0.232000
      6 C15         98.0540   108.2150   112.0140 c3         1 A1H      -0.091100
      7 C11        102.4990   108.1230   109.2330 c3         1 A1H       0.103000
      8 N3         101.3740   107.4040   109.7910 ns         1 A1H      -0.508900
      9 C10        103.8410   107.4730   109.5540 c3         1 A1H      -0.104400
     10 C8         106.7420   107.9500   110.5950 c6         1 A1H       0.163800
     11 C7         107.8890   107.0270   111.0020 c6         1 A1H       0.001800
     12 C5         108.6010   107.4660   108.6560 cc         1 A1H      -0.066300
     13 O1         101.4560   108.3550   111.8350 o          1 A1H      -0.603100
     14 C4         110.7000   106.7390   108.5310 ca         1 A1H      -0.044200
     15 C9         104.9980   108.2470   108.9370 c3         1 A1H       0.175800
     16 C1         112.3490   105.5500   110.3670 ca         1 A1H       0.092000
     17 C18        112.8090   105.7800   109.0640 ca         1 A1H      -0.087000
     18 C2         111.0820   105.9020   110.7800 ca         1 A1H      -0.052000
     19 C3         110.2340   106.5080   109.8480 ca         1 A1H      -0.081800
     20 C6         108.8910   106.9880   109.9000 cd         1 A1H      -0.122400
     21 N1         109.6830   107.3280   107.8340 na         1 A1H      -0.215700
     22 N2         106.2910   107.6580   109.2410 n3         1 A1H      -0.718600
     23 H17         98.3280   106.2850   112.9160 hc         1 A1H       0.049200
     24 H16         99.5150   107.4650   113.4110 hc         1 A1H       0.049200
     25 H14         99.3470   106.1800   110.6420 hc         1 A1H       0.054200
     26 H15        100.4310   105.6780   111.9180 hc         1 A1H       0.054200
     27 H23        112.3330   106.5590   107.1240 ha         1 A1H       0.117000
     28 H21        107.3810   109.1430   108.1630 h1         1 A1H       0.040200
     29 H22        106.9890   107.6730   107.2760 h1         1 A1H       0.040200
     30 H20         97.3590   108.5640   112.7770 hc         1 A1H       0.034700
     31 H19         98.6360   109.0770   111.6830 hc         1 A1H       0.034700
     32 H18         97.4650   107.8670   111.1630 hc         1 A1H       0.034700
     33 H13        102.4800   109.1500   109.6000 h1         1 A1H       0.052200
     34 H12        102.3540   108.1720   108.1530 h1         1 A1H       0.052200
     35 H2         100.9700   106.6680   109.2350 hn         1 A1H       0.309500
     36 H11        103.9500   107.4130   110.6400 hc         1 A1H       0.057700
     37 H10        103.8550   106.4480   109.1750 hc         1 A1H       0.057700
     38 H6         107.0630   109.0010   110.6890 h1         1 A1H       0.039200
     39 H7         105.9100   107.8140   111.2850 h1         1 A1H       0.039200
     40 H4         107.5030   106.0260   111.2180 hc         1 A1H       0.054200
     41 H5         108.3350   107.3930   111.9310 hc         1 A1H       0.054200
     42 H9         104.9490   109.3060   109.2450 h1         1 A1H       0.029200
     43 H8         104.8740   108.2430   107.8500 h1         1 A1H       0.029200
     44 H24        113.8120   105.4860   108.7860 ha         1 A1H       0.126000
     45 H3         110.7520   105.7130   111.7940 ha         1 A1H       0.131000
     46 H1         109.7160   107.5880   106.8610 hn         1 A1H       0.350000
     47 CL1        113.4280   104.7860   111.5010 cl         1 A1H      -0.219000
@<TRIPOS>BOND
     1     1     2 1   
     2     1     6 1   
     3     1    23 1   
     4     1    24 1   
     5     2     3 1   
     6     2    25 1   
     7     2    26 1   
     8     3     8 1   
     9     3    13 2   
    10     4    14 ar  
    11     4    17 ar  
    12     4    27 1   
    13     5    12 1   
    14     5    22 1   
    15     5    28 1   
    16     5    29 1   
    17     6    30 1   
    18     6    31 1   
    19     6    32 1   
    20     7     8 1   
    21     7     9 1   
    22     7    33 1   
    23     7    34 1   
    24     8    35 1   
    25     9    15 1   
    26     9    36 1   
    27     9    37 1   
    28    10    11 1   
    29    10    22 1   
    30    10    38 1   
    31    10    39 1   
    32    11    20 1   
    33    11    40 1   
    34    11    41 1   
    35    12    20 2   
    36    12    21 1   
    37    14    19 ar  
    38    14    21 1   
    39    15    22 1   
    40    15    42 1   
    41    15    43 1   
    42    16    17 ar  
    43    16    18 ar  
    44    16    47 1   
    45    17    44 1   
    46    18    19 ar  
    47    18    45 1   
    48    19    20 1   
    49    21    46 1   
@<TRIPOS>SUBSTRUCTURE
     1 A1H         1 TEMP              0 ****  ****    0 ROOT
