@<TRIPOS>MOLECULE
A1H
   21    20     1     0     0
SMALL
abcg2


@<TRIPOS>ATOM
      1 N1           0.9010     2.3670    -0.8860 n4         1 A1H      -0.547000
      2 C2           1.9000     1.5750    -0.0660 c3         1 A1H       0.098600
      3 C4           0.6520     1.7120    -2.2040 c3         1 A1H       0.073400
      4 C5          -0.3780     2.5120    -0.1210 c3         1 A1H       0.376600
      5 C1           1.5390     0.1500     0.2840 c3         1 A1H       0.145600
      6 C3           1.5010     3.7180    -1.1260 c3         1 A1H       0.073400
      7 F1          -1.1960     3.3580    -0.8050 f          1 A1H      -0.210000
      8 O1           0.5360     0.1300     1.2670 oh         1 A1H      -0.674000
      9 H4           2.0940     2.1510     0.8400 hx         1 A1H       0.105200
     10 H3           2.8140     1.5650    -0.6580 hx         1 A1H       0.105200
     11 H10          0.0440     2.3650    -2.8210 hx         1 A1H       0.101033
     12 H9           1.6090     1.5400    -2.6890 hx         1 A1H       0.101033
     13 H8           0.1370     0.7660    -2.0600 hx         1 A1H       0.101033
     14 H12         -0.8550     1.5410    -0.0360 hx         1 A1H       0.116200
     15 H11         -0.1420     2.9360     0.8540 hx         1 A1H       0.116200
     16 H2           1.2600    -0.4180    -0.6090 h1         1 A1H       0.062700
     17 H1           2.4740    -0.2920     0.6470 h1         1 A1H       0.062700
     18 H7           0.8360     4.3140    -1.7410 hx         1 A1H       0.101033
     19 H5           1.6690     4.2080    -0.1700 hx         1 A1H       0.101033
     20 H6           2.4480     3.5840    -1.6420 hx         1 A1H       0.101033
     21 H13          0.2490    -0.7790     1.3950 ho         1 A1H       0.489000
@<TRIPOS>BOND
     1     1     2 1   
     2     1     3 1   
     3     1     4 1   
     4     1     6 1   
     5     2     5 1   
     6     2     9 1   
     7     2    10 1   
     8     3    11 1   
     9     3    12 1   
    10     3    13 1   
    11     4     7 1   
    12     4    14 1   
    13     4    15 1   
    14     5     8 1   
    15     5    16 1   
    16     5    17 1   
    17     6    18 1   
    18     6    19 1   
    19     6    20 1   
    20     8    21 1   
@<TRIPOS>SUBSTRUCTURE
     1 A1H         1 TEMP              0 ****  ****    0 ROOT
