@<TRIPOS>MOLECULE
A1H
   20    19     1     0     0
SMALL
abcg2


@<TRIPOS>ATOM
      1 C5           1.7490     2.5520    -2.5400 c3         1 A1H       0.167600
      2 C2          -0.7240     1.8350    -0.9120 c3         1 A1H       0.372600
      3 C4           1.5850     1.3940    -1.5880 c3         1 A1H       0.058600
      4 F1          -1.5690     1.9110     0.1460 f          1 A1H      -0.198000
      5 C7           0.6830     0.2920     0.3670 c3         1 A1H       0.075900
      6 C8           1.1130     2.6840     0.4900 c3         1 A1H       0.075900
      7 F6           2.4440     3.6020    -1.9620 f          1 A1H      -0.236000
      8 N3           0.6600     1.5750    -0.4070 n4         1 A1H      -0.546000
      9 H51          2.3320     2.1720    -3.3810 h1         1 A1H       0.087200
     10 H52          0.8080     2.9350    -2.9330 h1         1 A1H       0.087200
     11 H22         -1.0080     1.0050    -1.5590 hx         1 A1H       0.105200
     12 H21         -0.7330     2.7820    -1.4450 hx         1 A1H       0.105200
     13 H41          2.5520     1.1100    -1.1720 hx         1 A1H       0.108700
     14 H42          1.2050     0.5420    -2.1540 hx         1 A1H       0.108700
     15 H71          1.7070     0.1010     0.6760 hx         1 A1H       0.104533
     16 H72          0.0500     0.3790     1.2440 hx         1 A1H       0.104533
     17 H73          0.3330    -0.5170    -0.2700 hx         1 A1H       0.104533
     18 H83          2.1630     2.5300     0.7230 hx         1 A1H       0.104533
     19 H82          0.9760     3.6410    -0.0020 hx         1 A1H       0.104533
     20 H81          0.5320     2.6570     1.4060 hx         1 A1H       0.104533
@<TRIPOS>BOND
     1     1     3 1   
     2     1     7 1   
     3     1     9 1   
     4     1    10 1   
     5     2     4 1   
     6     2     8 1   
     7     2    11 1   
     8     2    12 1   
     9     3     8 1   
    10     3    13 1   
    11     3    14 1   
    12     5     8 1   
    13     5    15 1   
    14     5    16 1   
    15     5    17 1   
    16     6     8 1   
    17     6    18 1   
    18     6    19 1   
    19     6    20 1   
@<TRIPOS>SUBSTRUCTURE
     1 A1H         1 TEMP              0 ****  ****    0 ROOT
