@<TRIPOS>MOLECULE
A1H
   30    31     1     0     0
SMALL
abcg2


@<TRIPOS>ATOM
      1 N1          -2.0600   -10.6340    30.3080 nb         1 A1H      -0.282000
      2 N3          -3.8540    -9.2370    29.6720 nb         1 A1H      -0.290000
      3 C4          -4.5850   -13.0000    27.4450 c3         1 A1H       0.175800
      4 C5          -4.1500   -14.0870    28.4240 c3         1 A1H      -0.036100
      5 C6          -5.2160   -15.1330    28.5950 ca         1 A1H      -0.082300
      6 C7          -5.1420   -16.3500    27.9230 ca         1 A1H      -0.107000
      7 C8          -6.1390   -17.3060    28.0670 ca         1 A1H      -0.109000
      8 C10         -7.3200   -15.8430    29.5570 ca         1 A1H      -0.109000
      9 C1          -2.8620    -9.6010    30.4700 ca         1 A1H       0.388300
     10 C11         -6.3200   -14.8920    29.4120 ca         1 A1H      -0.107000
     11 C12         -4.0800   -10.0000    28.6210 ca         1 A1H       0.351300
     12 C2          -2.2940   -11.3830    29.2300 ca         1 A1H       0.174900
     13 C3          -3.3090   -11.1420    28.3300 ca         1 A1H       0.066000
     14 C9          -7.2330   -17.0560    28.8840 ca         1 A1H      -0.110000
     15 N2          -3.5390   -11.9990    27.2360 nu         1 A1H      -0.887200
     16 O1          -2.6860    -8.8200    31.5280 oh         1 A1H      -0.617300
     17 O2          -5.0600    -9.6720    27.7960 oh         1 A1H      -0.641300
     18 H4          -5.5290   -12.5570    27.7930 h1         1 A1H       0.040700
     19 H5          -4.7910   -13.4560    26.4750 h1         1 A1H       0.040700
     20 H7          -3.2260   -14.5430    28.0610 hc         1 A1H       0.053700
     21 H6          -3.9240   -13.6400    29.3960 hc         1 A1H       0.053700
     22 H8          -4.2900   -16.5550    27.2840 ha         1 A1H       0.111500
     23 H9          -6.0590   -18.2500    27.5410 ha         1 A1H       0.112000
     24 H11         -8.1670   -15.6390    30.2010 ha         1 A1H       0.112000
     25 H12         -6.3920   -13.9520    29.9470 ha         1 A1H       0.111500
     26 H2          -1.6370   -12.2310    29.0710 h4         1 A1H       0.039100
     27 H10         -8.0090   -17.8010    29.0010 ha         1 A1H       0.112000
     28 H3          -3.7360   -11.4720    26.3960 hn         1 A1H       0.442000
     29 H1          -1.9430    -9.1570    32.0470 ho         1 A1H       0.495000
     30 H13         -5.4940    -8.8650    28.1090 ho         1 A1H       0.498000
@<TRIPOS>BOND
     1     1     9 ar  
     2     1    12 ar  
     3     2     9 ar  
     4     2    11 ar  
     5     3     4 1   
     6     3    15 1   
     7     3    18 1   
     8     3    19 1   
     9     4     5 1   
    10     4    20 1   
    11     4    21 1   
    12     5     6 ar  
    13     5    10 ar  
    14     6     7 ar  
    15     6    22 1   
    16     7    14 ar  
    17     7    23 1   
    18     8    10 ar  
    19     8    14 ar  
    20     8    24 1   
    21     9    16 1   
    22    10    25 1   
    23    11    13 ar  
    24    11    17 1   
    25    12    13 ar  
    26    12    26 1   
    27    13    15 1   
    28    14    27 1   
    29    15    28 1   
    30    16    29 1   
    31    17    30 1   
@<TRIPOS>SUBSTRUCTURE
     1 A1H         1 TEMP              0 ****  ****    0 ROOT
