@<TRIPOS>MOLECULE
A1H
   21    22     1     0     0
SMALL
No Charge or Current Charge


@<TRIPOS>ATOM
      1 N1           5.2580     3.2090    29.0680 ns         1 A1H      -0.476400
      2 N3           5.6980     1.5700    32.2110 nc         1 A1H      -0.288000
      3 C4           2.2040     4.9970    25.6350 ca         1 A1H      -0.132000
      4 C5           2.4540     4.3580    26.8620 ca         1 A1H      -0.035000
      5 C6           3.7790     4.1250    27.3110 ca         1 A1H      -0.204600
      6 C7           3.9690     3.4280    28.6470 c          1 A1H       0.632700
      7 C8           5.7000     2.6090    30.2180 cd         1 A1H       0.545300
      8 C1           4.8450     4.5600    26.4780 ca         1 A1H       0.198000
      9 C2           4.5870     5.1980    25.2540 ca         1 A1H      -0.159000
     10 C3           3.2690     5.4190    24.8290 ca         1 A1H      -0.060000
     11 C9           6.9970     1.6950    31.9740 cd         1 A1H       0.384300
     12 F1           6.1400     4.3820    26.8210 f          1 A1H      -0.174000
     13 N2           4.9390     2.1060    31.1810 nc         1 A1H      -0.337000
     14 O1           3.0040     3.0800    29.3120 o          1 A1H      -0.508100
     15 S1           7.4170     2.4790    30.4700 ss         1 A1H      -0.317800
     16 H5           5.9640     3.5430    28.4300 hn         1 A1H       0.339500
     17 H4           1.6020     4.0440    27.4630 ha         1 A1H       0.138000
     18 H1           5.4180     5.5230    24.6320 ha         1 A1H       0.138000
     19 H2           3.0750     5.9140    23.8790 ha         1 A1H       0.123000
     20 H6           7.7790     1.3480    32.6380 h5         1 A1H       0.064100
     21 H3           1.1790     5.1660    25.3110 ha         1 A1H       0.127000
@<TRIPOS>BOND
     1     1     6 1   
     2     1     7 1   
     3     1    16 1   
     4     2    11 2   
     5     2    13 1   
     6     3     4 ar  
     7     3    10 ar  
     8     3    21 1   
     9     4     5 ar  
    10     4    17 1   
    11     5     6 1   
    12     5     8 ar  
    13     6    14 2   
    14     7    13 2   
    15     7    15 1   
    16     8     9 ar  
    17     8    12 1   
    18     9    10 ar  
    19     9    18 1   
    20    10    19 1   
    21    11    15 1   
    22    11    20 1   
@<TRIPOS>SUBSTRUCTURE
     1 A1H         1 TEMP              0 ****  ****    0 ROOT
