@<TRIPOS>MOLECULE
A1H
   25    25     1     0     0
SMALL
No Charge or Current Charge


@<TRIPOS>ATOM
      1 C1           1.7560     3.0460    -3.0910 cx         1 A1H      -0.101400
      2 C2           0.4450     3.7910    -2.9420 cx         1 A1H      -0.101400
      3 C3           0.5990     2.4040    -2.3610 cx         1 A1H      -0.012700
      4 C5           1.3750     0.8540    -0.5310 c3         1 A1H       0.101600
      5 C6           1.5530     0.3770     0.9380 c3         1 A1H       0.147600
      6 C8          -0.7640     2.1070    -0.2710 c3         1 A1H       0.080400
      7 C9           1.3700     3.3010    -0.0510 c3         1 A1H       0.080400
      8 N4           0.6550     2.1920    -0.8530 n4         1 A1H      -0.463000
      9 O1           0.3180    -0.1380     1.4680 oh         1 A1H      -0.669000
     10 H11          2.0070     2.6560    -4.0740 hc         1 A1H       0.105950
     11 H12          2.6100     3.3950    -2.5170 hc         1 A1H       0.105950
     12 H22          0.4150     4.6430    -2.2690 hc         1 A1H       0.105950
     13 H21         -0.1790     3.8970    -3.8260 hc         1 A1H       0.105950
     14 H3           0.0730     1.5790    -2.8390 hx         1 A1H       0.130700
     15 H52          0.8560     0.0650    -1.0770 hx         1 A1H       0.101200
     16 H51          2.3740     0.9390    -0.9640 hx         1 A1H       0.101200
     17 H62          2.3140    -0.4140     0.9430 h1         1 A1H       0.056700
     18 H61          1.9380     1.1970     1.5580 h1         1 A1H       0.056700
     19 H81         -0.7090     1.9720     0.8110 hx         1 A1H       0.096867
     20 H83         -1.3000     3.0300    -0.4990 hx         1 A1H       0.096867
     21 H82         -1.2850     1.2590    -0.7190 hx         1 A1H       0.096867
     22 H92          1.3080     3.0790     1.0160 hx         1 A1H       0.096867
     23 H91          2.4170     3.3520    -0.3550 hx         1 A1H       0.096867
     24 H93          0.8840     4.2580    -0.2450 hx         1 A1H       0.096867
     25 HO1          0.5110    -0.4900     2.3680 ho         1 A1H       0.484000
@<TRIPOS>BOND
     1     1     2 1   
     2     1     3 1   
     3     1    10 1   
     4     1    11 1   
     5     2     3 1   
     6     2    12 1   
     7     2    13 1   
     8     3     8 1   
     9     3    14 1   
    10     4     5 1   
    11     4     8 1   
    12     4    15 1   
    13     4    16 1   
    14     5     9 1   
    15     5    17 1   
    16     5    18 1   
    17     6     8 1   
    18     6    19 1   
    19     6    20 1   
    20     6    21 1   
    21     7     8 1   
    22     7    22 1   
    23     7    23 1   
    24     7    24 1   
    25     9    25 1   
@<TRIPOS>SUBSTRUCTURE
     1 A1H         1 TEMP              0 ****  ****    0 ROOT
