@<TRIPOS>MOLECULE
A1H
   27    28     1     0     0
SMALL
No Charge or Current Charge


@<TRIPOS>ATOM
      1 N1          -1.1160   -10.3350    31.1730 ns         1 A1H      -0.508600
      2 N3          -0.1540    -8.4850    30.2240 ns         1 A1H      -0.463500
      3 C4          -4.8440    -9.6080    28.9340 c3         1 A1H       0.246100
      4 C5          -4.6580   -10.9200    28.1750 ca         1 A1H      -0.105300
      5 C6          -4.2660   -10.9130    26.8200 ca         1 A1H      -0.098500
      6 C7          -4.1010   -12.1220    26.1210 ca         1 A1H      -0.112000
      7 C8          -4.3310   -13.3470    26.7700 ca         1 A1H      -0.106000
      8 C10         -4.8930   -12.1540    28.8170 ca         1 A1H      -0.098500
      9 C1          -0.0100    -9.5390    31.0680 c          1 A1H       0.613000
     10 C11         -1.2510    -8.1390    29.4860 c          1 A1H       0.580200
     11 C2          -2.3240   -10.1460    30.5030 cc         1 A1H      -0.107400
     12 C3          -2.4340    -9.0650    29.6530 cd         1 A1H      -0.029200
     13 C9          -4.7270   -13.3620    28.1170 ca         1 A1H      -0.112000
     14 N2          -3.6060    -8.8070    28.9450 nu         1 A1H      -0.778200
     15 O1           1.0160    -9.7580    31.6810 o          1 A1H      -0.561000
     16 O2          -1.2410    -7.1540    28.7600 o          1 A1H      -0.534000
     17 H1          -0.9960   -11.1220    31.8080 hn         1 A1H       0.462000
     18 H11          0.6480    -7.8840    30.1300 hn         1 A1H       0.345500
     19 H4          -5.1640    -9.8130    29.9650 h1         1 A1H       0.044700
     20 H5          -5.6490    -9.0340    28.4540 h1         1 A1H       0.044700
     21 H6          -4.0860    -9.9700    26.3100 ha         1 A1H       0.118000
     22 H7          -3.7960   -12.1080    25.0770 ha         1 A1H       0.114000
     23 H8          -4.2030   -14.2820    26.2290 ha         1 A1H       0.114000
     24 H10         -5.2040   -12.1780    29.8590 ha         1 A1H       0.118000
     25 H2          -3.0870   -10.8900    30.7170 h4         1 A1H       0.216000
     26 H9          -4.9080   -14.3100    28.6200 ha         1 A1H       0.114000
     27 H3          -3.5860    -7.9790    28.3400 hn         1 A1H       0.485000
@<TRIPOS>BOND
     1     1     9 1   
     2     1    11 1   
     3     1    17 1   
     4     2     9 1   
     5     2    10 1   
     6     2    18 1   
     7     3     4 1   
     8     3    14 1   
     9     3    19 1   
    10     3    20 1   
    11     4     5 ar  
    12     4     8 ar  
    13     5     6 ar  
    14     5    21 1   
    15     6     7 ar  
    16     6    22 1   
    17     7    13 ar  
    18     7    23 1   
    19     8    13 ar  
    20     8    24 1   
    21     9    15 2   
    22    10    12 1   
    23    10    16 2   
    24    11    12 2   
    25    11    25 1   
    26    12    14 1   
    27    13    26 1   
    28    14    27 1   
@<TRIPOS>SUBSTRUCTURE
     1 A1H         1 TEMP              0 ****  ****    0 ROOT
