@<TRIPOS>MOLECULE
A1H
   21    20     1     0     0
SMALL
No Charge or Current Charge


@<TRIPOS>ATOM
      1 N1           0.9110     2.3950    -0.8970 n4         1 A1H      -0.547000
      2 C2           1.9090     1.5500    -0.0670 c3         1 A1H       0.098600
      3 C4           0.6590     1.7260    -2.2620 c3         1 A1H       0.073400
      4 C5          -0.4220     2.5470    -0.1270 c3         1 A1H       0.376600
      5 C1           1.5350     0.0910     0.3000 c3         1 A1H       0.145600
      6 C3           1.5320     3.7840    -1.1330 c3         1 A1H       0.073400
      7 F1          -1.2380     3.3320    -0.8750 f          1 A1H      -0.210000
      8 O1           0.5110     0.0680     1.3100 oh         1 A1H      -0.674000
      9 H4           2.1150     2.0890     0.8610 hx         1 A1H       0.105200
     10 H3           2.8400     1.5150    -0.6360 hx         1 A1H       0.105200
     11 H10         -0.0110     2.3540    -2.8530 hx         1 A1H       0.101033
     12 H9           1.6080     1.6080    -2.7890 hx         1 A1H       0.101033
     13 H8           0.1980     0.7470    -2.1110 hx         1 A1H       0.101033
     14 H12         -0.8840     1.5680     0.0140 hx         1 A1H       0.116200
     15 H11         -0.2410     3.0170     0.8410 hx         1 A1H       0.116200
     16 H2           1.2130    -0.4460    -0.6020 h1         1 A1H       0.062700
     17 H1           2.4400    -0.4090     0.6720 h1         1 A1H       0.062700
     18 H7           0.8430     4.3940    -1.7220 hx         1 A1H       0.101033
     19 H5           1.7170     4.2690    -0.1720 hx         1 A1H       0.101033
     20 H6           2.4740     3.6740    -1.6740 hx         1 A1H       0.101033
     21 H13          0.3810    -0.8730     1.5740 ho         1 A1H       0.489000
@<TRIPOS>BOND
     1     1     2 1   
     2     1     3 1   
     3     1     4 1   
     4     1     6 1   
     5     2     5 1   
     6     2     9 1   
     7     2    10 1   
     8     3    11 1   
     9     3    12 1   
    10     3    13 1   
    11     4     7 1   
    12     4    14 1   
    13     4    15 1   
    14     5     8 1   
    15     5    16 1   
    16     5    17 1   
    17     6    18 1   
    18     6    19 1   
    19     6    20 1   
    20     8    21 1   
@<TRIPOS>SUBSTRUCTURE
     1 A1H         1 TEMP              0 ****  ****    0 ROOT
