@<TRIPOS>MOLECULE
A1H
   25    25     1     0     0
SMALL
abcg2


@<TRIPOS>ATOM
      1 C1           1.7800     3.0600    -2.9500 cx         1 A1H      -0.101400
      2 C2           0.4400     3.7360    -2.8610 cx         1 A1H      -0.101400
      3 C3           0.6480     2.3960    -2.2520 cx         1 A1H      -0.012700
      4 C5           1.3120     0.8190    -0.5850 c3         1 A1H       0.101600
      5 C6           1.6290     0.3980     0.8310 c3         1 A1H       0.147600
      6 C8          -0.8130     2.1120    -0.3750 c3         1 A1H       0.080400
      7 C9           1.3140     3.2150    -0.0030 c3         1 A1H       0.080400
      8 N4           0.6250     2.1530    -0.7820 n4         1 A1H      -0.463000
      9 O1           0.4550     0.1550     1.5600 oh         1 A1H      -0.669000
     10 H11          2.0940     2.6200    -3.8870 hc         1 A1H       0.105950
     11 H12          2.5880     3.4920    -2.3740 hc         1 A1H       0.105950
     12 H22          0.3720     4.6130    -2.2300 hc         1 A1H       0.105950
     13 H21         -0.1960     3.7720    -3.7340 hc         1 A1H       0.105950
     14 H3           0.1850     1.5560    -2.7560 hx         1 A1H       0.130700
     15 H52          0.6880     0.0730    -1.0790 hx         1 A1H       0.101200
     16 H51          2.2520     0.8870    -1.1310 hx         1 A1H       0.101200
     17 H62          2.2340    -0.5110     0.7160 h1         1 A1H       0.056700
     18 H61          2.2770     1.1340     1.3170 h1         1 A1H       0.056700
     19 H81         -0.8890     1.9270     0.6900 hx         1 A1H       0.096867
     20 H83         -1.2620     3.0690    -0.6240 hx         1 A1H       0.096867
     21 H82         -1.3110     1.3180    -0.9260 hx         1 A1H       0.096867
     22 H92          1.1330     3.0490     1.0550 hx         1 A1H       0.096867
     23 H91          2.3830     3.1880    -0.1950 hx         1 A1H       0.096867
     24 H93          0.9060     4.1850    -0.2700 hx         1 A1H       0.096867
     25 HO1          0.6990    -0.0630     2.4650 ho         1 A1H       0.484000
@<TRIPOS>BOND
     1     1     2 1   
     2     1     3 1   
     3     1    10 1   
     4     1    11 1   
     5     2     3 1   
     6     2    12 1   
     7     2    13 1   
     8     3     8 1   
     9     3    14 1   
    10     4     5 1   
    11     4     8 1   
    12     4    15 1   
    13     4    16 1   
    14     5     9 1   
    15     5    17 1   
    16     5    18 1   
    17     6     8 1   
    18     6    19 1   
    19     6    20 1   
    20     6    21 1   
    21     7     8 1   
    22     7    22 1   
    23     7    23 1   
    24     7    24 1   
    25     9    25 1   
@<TRIPOS>SUBSTRUCTURE
     1 A1H         1 TEMP              0 ****  ****    0 ROOT
