@<TRIPOS>MOLECULE
A1H
   31    32     1     0     0
SMALL
No Charge or Current Charge


@<TRIPOS>ATOM
      1 N1         -18.1710    -6.3560     8.5210 nh         1 A1H      -0.770300
      2 N3         -16.5770    -6.2940     6.8210 nb         1 A1H      -0.760000
      3 C4         -18.2770    -6.8650     9.9270 c6         1 A1H       0.172800
      4 C5         -19.7470    -6.8660    10.4580 c6         1 A1H       0.121800
      5 C6         -16.9410    -5.8640     8.0420 ca         1 A1H       0.626900
      6 C7         -16.1600    -4.9670     8.7940 ca         1 A1H      -0.235000
      7 C8         -14.9460    -4.5040     8.2690 ca         1 A1H      -0.035000
      8 C10        -15.4080    -5.8530     6.3130 ca         1 A1H       0.406300
      9 C1         -21.6120    -7.7460     7.2540 c3         1 A1H      -0.086100
     10 C11        -15.0440    -6.3670     4.9330 c3         1 A1H      -0.147400
     11 C2         -20.6280    -6.9810     8.1740 c6         1 A1H       0.132500
     12 C3         -19.1730    -6.9790     7.5890 c6         1 A1H       0.178800
     13 C9         -14.5670    -4.9630     7.0010 ca         1 A1H      -0.222000
     14 N2         -20.6930    -7.5640     9.5420 n7         1 A1H      -0.847400
     15 H7         -17.8840    -7.8920     9.9750 h1         1 A1H       0.055700
     16 H8         -17.6700    -6.2620    10.6170 h1         1 A1H       0.055700
     17 H9         -19.7730    -7.3410    11.4510 h1         1 A1H       0.060200
     18 H10        -20.0730    -5.8230    10.5900 h1         1 A1H       0.060200
     19 H12        -16.4970    -4.6200     9.7640 ha         1 A1H       0.119000
     20 H13        -14.3210    -3.8080     8.8260 ha         1 A1H       0.112000
     21 H1         -22.6350    -7.7040     7.6470 hc         1 A1H       0.040367
     22 H3         -21.6290    -7.3090     6.2490 hc         1 A1H       0.040367
     23 H2         -21.3320    -8.8010     7.1550 hc         1 A1H       0.040367
     24 H15        -15.2780    -7.4330     4.8300 hc         1 A1H       0.050033
     25 H17        -15.5970    -5.8230     4.1590 hc         1 A1H       0.050033
     26 H16        -13.9740    -6.2430     4.7310 hc         1 A1H       0.050033
     27 H4         -20.9680    -5.9350     8.2230 h1         1 A1H       0.072700
     28 H5         -18.8750    -8.0140     7.3630 h1         1 A1H       0.068200
     29 H6         -19.1980    -6.4340     6.6330 h1         1 A1H       0.068200
     30 H14        -13.6350    -4.6290     6.5510 ha         1 A1H       0.122000
     31 H18        -20.4120    -8.5500     9.4810 hn         1 A1H       0.401000
@<TRIPOS>BOND
     1     1     3 1   
     2     1     5 1   
     3     1    12 1   
     4     2     5 ar  
     5     2     8 ar  
     6     3     4 1   
     7     3    15 1   
     8     3    16 1   
     9     4    14 1   
    10     4    17 1   
    11     4    18 1   
    12     5     6 ar  
    13     6     7 ar  
    14     6    19 1   
    15     7    13 ar  
    16     7    20 1   
    17     8    10 1   
    18     8    13 ar  
    19     9    11 1   
    20     9    21 1   
    21     9    22 1   
    22     9    23 1   
    23    10    24 1   
    24    10    25 1   
    25    10    26 1   
    26    11    12 1   
    27    11    14 1   
    28    11    27 1   
    29    12    28 1   
    30    12    29 1   
    31    13    30 1   
    32    14    31 1   
@<TRIPOS>SUBSTRUCTURE
     1 A1H         1 TEMP              0 ****  ****    0 ROOT
