@<TRIPOS>MOLECULE
A1H
   27    27     1     0     0
SMALL
No Charge or Current Charge


@<TRIPOS>ATOM
      1 N1          -2.0260     6.4560    11.1910 ns         1 A1H      -0.176000
      2 C4          -2.4710     7.2160    12.3110 ca         1 A1H       0.002000
      3 C5          -3.7210     7.8730    12.3210 ca         1 A1H      -0.142000
      4 C6          -4.1360     8.6040    13.4420 ca         1 A1H      -0.063000
      5 C7          -3.3080     8.6830    14.5680 ca         1 A1H      -0.185000
      6 C8          -2.0670     8.0340    14.5840 ca         1 A1H       0.297000
      7 C1          -0.7700     6.0500     8.0090 c3         1 A1H      -0.076100
      8 C2          -1.7020     5.3490     9.0230 c3         1 A1H      -0.159400
      9 C3          -2.4760     6.3620     9.8800 c          1 A1H       0.602100
     10 C9          -1.6340     7.2910    13.4560 ca         1 A1H      -0.157300
     11 N2          -1.3050     8.1440    15.7190 nv         1 A1H      -1.072000
     12 O1          -3.4130     7.0040     9.4200 o          1 A1H      -0.579100
     13 H6          -1.2260     5.8700    11.3910 hn         1 A1H       0.151000
     14 H7          -4.3960     7.8170    11.4730 ha         1 A1H       0.127000
     15 H8          -5.1020     9.1050    13.4390 ha         1 A1H       0.114000
     16 H9          -3.6390     9.2510    15.4340 ha         1 A1H       0.112000
     17 H14         -0.4210     5.4780    13.3610 hc         1 A1H       0.037700
     18 H13          0.3260     6.8810    12.5790 hc         1 A1H       0.037700
     19 H12          0.3330     6.7400    14.3290 hc         1 A1H       0.037700
     20 H2          -0.2300     5.3080     7.4090 hc         1 A1H       0.043033
     21 H1          -1.3460     6.6890     7.3280 hc         1 A1H       0.043033
     22 H3          -0.0320     6.6750     8.5280 hc         1 A1H       0.043033
     23 H4          -2.4210     4.7390     8.4620 hc         1 A1H       0.053700
     24 H5          -1.0890     4.7030     9.6620 hc         1 A1H       0.053700
     25 H11         -0.3450     7.8100    15.7130 hn         1 A1H       0.445500
     26 H10         -1.5750     8.7990    16.4500 hn         1 A1H       0.445500
     27 C10         -0.2780     6.5630    13.4380 c3         1 A1H      -0.037800
@<TRIPOS>BOND
     1     1     2 1   
     2     1     9 1   
     3     1    13 1   
     4     2     3 ar  
     5     2    10 ar  
     6     3     4 ar  
     7     3    14 1   
     8     4     5 ar  
     9     4    15 1   
    10     5     6 ar  
    11     5    16 1   
    12     6    10 ar  
    13     6    11 1   
    14     7     8 1   
    15     7    20 1   
    16     7    21 1   
    17     7    22 1   
    18     8     9 1   
    19     8    23 1   
    20     8    24 1   
    21     9    12 2   
    22    10    27 1   
    23    11    25 1   
    24    11    26 1   
    25    17    27 1   
    26    18    27 1   
    27    19    27 1   
@<TRIPOS>SUBSTRUCTURE
     1 A1H         1 TEMP              0 ****  ****    0 ROOT
