@<TRIPOS>MOLECULE
A1H
   21    22     1     0     0
SMALL
abcg2


@<TRIPOS>ATOM
      1 N1           5.2870     3.3410    29.0490 ns         1 A1H      -0.476400
      2 N3           5.9280     1.1370    31.7210 nc         1 A1H      -0.288000
      3 C4           2.3100     5.3390    25.9270 ca         1 A1H      -0.132000
      4 C5           2.5910     4.5880    27.0550 ca         1 A1H      -0.035000
      5 C6           3.8370     3.9830    27.2220 ca         1 A1H      -0.204600
      6 C7           4.0590     3.1700    28.4550 c          1 A1H       0.632700
      7 C8           5.7260     2.6860    30.1750 cd         1 A1H       0.545300
      8 C1           4.7650     4.1250    26.2000 ca         1 A1H       0.198000
      9 C2           4.5040     4.8570    25.0590 ca         1 A1H      -0.159000
     10 C3           3.2690     5.4740    24.9300 ca         1 A1H      -0.060000
     11 C9           6.8050     1.9770    32.1480 cd         1 A1H       0.384300
     12 F1           5.9530     3.5110    26.3000 f          1 A1H      -0.174000
     13 N2           5.3110     1.5340    30.5890 nc         1 A1H      -0.337000
     14 O1           3.1930     2.4600    28.9070 o          1 A1H      -0.508100
     15 S1           6.9490     3.3910    31.1810 ss         1 A1H      -0.317800
     16 H5           5.8830     4.0750    28.6960 hn         1 A1H       0.339500
     17 H4           1.8430     4.4780    27.8300 ha         1 A1H       0.138000
     18 H1           5.2540     4.9350    24.2830 ha         1 A1H       0.138000
     19 H2           3.0560     6.0570    24.0440 ha         1 A1H       0.123000
     20 H6           7.4090     1.8200    33.0300 h5         1 A1H       0.064100
     21 H3           1.3450     5.8160    25.8230 ha         1 A1H       0.127000
@<TRIPOS>BOND
     1     1     6 1   
     2     1     7 1   
     3     1    16 1   
     4     2    11 2   
     5     2    13 1   
     6     3     4 ar  
     7     3    10 ar  
     8     3    21 1   
     9     4     5 ar  
    10     4    17 1   
    11     5     6 1   
    12     5     8 ar  
    13     6    14 2   
    14     7    13 2   
    15     7    15 1   
    16     8     9 ar  
    17     8    12 1   
    18     9    10 ar  
    19     9    18 1   
    20    10    19 1   
    21    11    15 1   
    22    11    20 1   
@<TRIPOS>SUBSTRUCTURE
     1 A1H         1 TEMP              0 ****  ****    0 ROOT
