@<TRIPOS>MOLECULE
A1H
   30    32     1     0     0
SMALL
abcg2


@<TRIPOS>ATOM
      1 C10        -19.6370    -7.3090     7.3800 c5         1 A1H       0.229800
      2 C13        -17.2310    -6.3530     8.7370 ca         1 A1H       0.219900
      3 C15        -16.2660    -5.5150    10.6260 ca         1 A1H       0.205900
      4 C05        -21.6900    -7.9340     8.4860 c5         1 A1H      -0.108000
      5 C06        -21.1330    -7.4800     7.1230 c5         1 A1H      -0.081400
      6 C07        -20.8610    -7.1120     9.4730 c5         1 A1H       0.249800
      7 C08        -21.5640    -9.4570     8.6680 c5         1 A1H      -0.103400
      8 C09        -23.1960    -7.7560     8.6400 c5         1 A1H       0.166600
      9 C11        -22.8230    -9.9810     7.9830 c5         1 A1H       0.150600
     10 C12        -18.4810    -6.4600     9.4110 ca         1 A1H       0.583900
     11 C14        -17.4760    -5.6260    11.2870 ca         1 A1H       0.342900
     12 N02        -19.5820    -6.9320     8.7920 nh         1 A1H      -0.798300
     13 N03        -18.5810    -6.0900    10.7000 nb         1 A1H      -0.730000
     14 N04        -16.1550    -5.8870     9.3390 nb         1 A1H      -0.599000
     15 O01        -23.8030    -8.9250     8.0740 os         1 A1H      -0.468000
     16 H102       -19.1950    -6.5360     6.7490 h1         1 A1H       0.048200
     17 H101       -19.0850    -8.2400     7.2060 h1         1 A1H       0.048200
     18 H151       -15.3820    -5.1330    11.1210 h4         1 A1H       0.029100
     19 H061       -21.3350    -8.1870     6.3200 hc         1 A1H       0.062200
     20 H062       -21.5750    -6.5190     6.8520 hc         1 A1H       0.062200
     21 H072       -20.7270    -7.6200    10.4280 h1         1 A1H       0.061700
     22 H071       -21.3310    -6.1420     9.6740 h1         1 A1H       0.061700
     23 H082       -20.6530    -9.8680     8.2320 hc         1 A1H       0.060700
     24 H081       -21.5750    -9.7030     9.7320 hc         1 A1H       0.060700
     25 H092       -23.5730    -6.8780     8.1140 h1         1 A1H       0.051700
     26 H091       -23.4650    -7.6760     9.7000 h1         1 A1H       0.051700
     27 H112       -23.2220   -10.8770     8.4620 h1         1 A1H       0.047200
     28 H111       -22.6480   -10.1990     6.9260 h1         1 A1H       0.047200
     29 H141       -17.5640    -5.3300    12.3270 h4         1 A1H       0.023100
     30 H131       -17.1320    -6.6590     7.7030 h4         1 A1H       0.024100
@<TRIPOS>BOND
     1     1     5 1   
     2     1    12 1   
     3     1    16 1   
     4     1    17 1   
     5     2    10 ar  
     6     2    14 ar  
     7     2    30 1   
     8     3    11 ar  
     9     3    14 ar  
    10     3    18 1   
    11     4     5 1   
    12     4     6 1   
    13     4     7 1   
    14     4     8 1   
    15     5    19 1   
    16     5    20 1   
    17     6    12 1   
    18     6    21 1   
    19     6    22 1   
    20     7     9 1   
    21     7    23 1   
    22     7    24 1   
    23     8    15 1   
    24     8    25 1   
    25     8    26 1   
    26     9    15 1   
    27     9    27 1   
    28     9    28 1   
    29    10    12 1   
    30    10    13 ar  
    31    11    13 ar  
    32    11    29 1   
@<TRIPOS>SUBSTRUCTURE
     1 A1H         1 TEMP              0 ****  ****    0 ROOT
