@<TRIPOS>MOLECULE
A1H
   30    31     1     0     0
SMALL
No Charge or Current Charge


@<TRIPOS>ATOM
      1 N1          -3.5270   -10.2190    30.9130 nb         1 A1H      -0.282000
      2 N3          -2.4220    -9.0480    29.1310 nb         1 A1H      -0.290000
      3 C4          -5.4740   -12.8050    27.8760 c3         1 A1H       0.175800
      4 C5          -4.4800   -13.9480    28.1780 c3         1 A1H      -0.036100
      5 C6          -5.1920   -15.2750    28.4080 ca         1 A1H      -0.082300
      6 C7          -5.3730   -16.1800    27.3440 ca         1 A1H      -0.107000
      7 C8          -6.0340   -17.4020    27.5570 ca         1 A1H      -0.109000
      8 C10         -6.3440   -16.8260    29.9000 ca         1 A1H      -0.109000
      9 C1          -2.6660    -9.3120    30.4250 ca         1 A1H       0.388300
     10 C11         -5.6820   -15.6040    29.6870 ca         1 A1H      -0.107000
     11 C12         -3.1120    -9.7700    28.2330 ca         1 A1H       0.351300
     12 C2          -4.2200   -10.9440    30.0100 ca         1 A1H       0.174900
     13 C3          -4.0530   -10.7670    28.6160 ca         1 A1H       0.066000
     14 C9          -6.5200   -17.7260    28.8350 ca         1 A1H      -0.110000
     15 N2          -4.7790   -11.5230    27.6560 nu         1 A1H      -0.887200
     16 O1          -1.9750    -8.5890    31.3370 oh         1 A1H      -0.617300
     17 O2          -2.8610    -9.4980    26.9180 oh         1 A1H      -0.641300
     18 H4          -6.1890   -12.7120    28.7050 h1         1 A1H       0.040700
     19 H5          -6.0470   -13.0700    26.9760 h1         1 A1H       0.040700
     20 H7          -3.7730   -14.0370    27.3450 hc         1 A1H       0.053700
     21 H6          -3.8830   -13.6900    29.0610 hc         1 A1H       0.053700
     22 H8          -5.0020   -15.9370    26.3500 ha         1 A1H       0.111500
     23 H9          -6.1710   -18.0980    26.7320 ha         1 A1H       0.112000
     24 H11         -6.7200   -17.0750    30.8900 ha         1 A1H       0.112000
     25 H12         -5.5510   -14.9120    30.5160 ha         1 A1H       0.111500
     26 H2          -4.9190   -11.6750    30.4130 h4         1 A1H       0.039100
     27 H10         -7.0320   -18.6710    29.0000 ha         1 A1H       0.112000
     28 H3          -4.5870   -11.2700    26.6820 hn         1 A1H       0.442000
     29 H1          -2.2720    -8.9040    32.2170 ho         1 A1H       0.495000
     30 H13         -2.1860    -8.7850    26.9080 ho         1 A1H       0.498000
@<TRIPOS>BOND
     1     1     9 ar  
     2     1    12 ar  
     3     2     9 ar  
     4     2    11 ar  
     5     3     4 1   
     6     3    15 1   
     7     3    18 1   
     8     3    19 1   
     9     4     5 1   
    10     4    20 1   
    11     4    21 1   
    12     5     6 ar  
    13     5    10 ar  
    14     6     7 ar  
    15     6    22 1   
    16     7    14 ar  
    17     7    23 1   
    18     8    10 ar  
    19     8    14 ar  
    20     8    24 1   
    21     9    16 1   
    22    10    25 1   
    23    11    13 ar  
    24    11    17 1   
    25    12    13 ar  
    26    12    26 1   
    27    13    15 1   
    28    14    27 1   
    29    15    28 1   
    30    16    29 1   
    31    17    30 1   
@<TRIPOS>SUBSTRUCTURE
     1 A1H         1 TEMP              0 ****  ****    0 ROOT
