@<TRIPOS>MOLECULE
A1H
   27    27     1     0     0
SMALL
abcg2


@<TRIPOS>ATOM
      1 N1          -2.0460     6.2300    11.3190 ns         1 A1H      -0.176000
      2 C4          -2.4820     7.0450    12.3890 ca         1 A1H       0.002000
      3 C5          -3.7410     7.6390    12.3190 ca         1 A1H      -0.142000
      4 C6          -4.1810     8.4180    13.3750 ca         1 A1H      -0.063000
      5 C7          -3.3890     8.5960    14.4970 ca         1 A1H      -0.185000
      6 C8          -2.1330     7.9920    14.5800 ca         1 A1H       0.297000
      7 C1          -1.0340     6.0790     7.7240 c3         1 A1H      -0.076100
      8 C2          -1.4750     5.5520     9.0780 c3         1 A1H      -0.159400
      9 C3          -1.9440     6.6360    10.0280 c          1 A1H       0.602100
     10 C9          -1.6580     7.2160    13.5030 ca         1 A1H      -0.157300
     11 N2          -1.3790     8.1200    15.7310 nv         1 A1H      -1.072000
     12 O1          -2.2150     7.7650     9.6620 o          1 A1H      -0.579100
     13 H6          -1.7300     5.2990    11.5420 hn         1 A1H       0.151000
     14 H7          -4.3710     7.4780    11.4560 ha         1 A1H       0.127000
     15 H8          -5.1550     8.8880    13.3290 ha         1 A1H       0.114000
     16 H9          -3.7430     9.2040    15.3220 ha         1 A1H       0.112000
     17 H14         -0.2330     5.8850    14.4240 hc         1 A1H       0.037700
     18 H13         -0.0030     6.0810    12.6910 hc         1 A1H       0.037700
     19 H12          0.4740     7.3580    13.7830 hc         1 A1H       0.037700
     20 H2          -0.7140     5.2550     7.0890 hc         1 A1H       0.043033
     21 H1          -1.8420     6.5990     7.2110 hc         1 A1H       0.043033
     22 H3          -0.1970     6.7700     7.8170 hc         1 A1H       0.043033
     23 H4          -2.2980     4.8400     8.9550 hc         1 A1H       0.053700
     24 H5          -0.6660     4.9850     9.5470 hc         1 A1H       0.053700
     25 H11         -0.3780     8.0790    15.6200 hn         1 A1H       0.445500
     26 H10         -1.6460     8.8860    16.3290 hn         1 A1H       0.445500
     27 C10         -0.2920     6.6000    13.6000 c3         1 A1H      -0.037800
@<TRIPOS>BOND
     1     1     2 1   
     2     1     9 1   
     3     1    13 1   
     4     2     3 ar  
     5     2    10 ar  
     6     3     4 ar  
     7     3    14 1   
     8     4     5 ar  
     9     4    15 1   
    10     5     6 ar  
    11     5    16 1   
    12     6    10 ar  
    13     6    11 1   
    14     7     8 1   
    15     7    20 1   
    16     7    21 1   
    17     7    22 1   
    18     8     9 1   
    19     8    23 1   
    20     8    24 1   
    21     9    12 2   
    22    10    27 1   
    23    11    25 1   
    24    11    26 1   
    25    17    27 1   
    26    18    27 1   
    27    19    27 1   
@<TRIPOS>SUBSTRUCTURE
     1 A1H         1 TEMP              0 ****  ****    0 ROOT
