@<TRIPOS>MOLECULE
A1H
   30    32     1     0     0
SMALL
No Charge or Current Charge


@<TRIPOS>ATOM
      1 C10        -19.6680    -7.3050     7.3480 c5         1 A1H       0.229800
      2 C13        -17.1520    -6.3710     8.7550 ca         1 A1H       0.219900
      3 C15        -16.2030    -5.5190    10.6630 ca         1 A1H       0.205900
      4 C05        -21.7000    -7.9230     8.4600 c5         1 A1H      -0.108000
      5 C06        -21.1950    -7.4070     7.0830 c5         1 A1H      -0.081400
      6 C07        -20.9070    -7.0930     9.5010 c5         1 A1H       0.249800
      7 C08        -21.5010    -9.4610     8.6230 c5         1 A1H      -0.103400
      8 C09        -23.2260    -7.7730     8.6090 c5         1 A1H       0.166600
      9 C11        -22.8340   -10.0150     8.0220 c5         1 A1H       0.150600
     10 C12        -18.4280    -6.4420     9.4110 ca         1 A1H       0.583900
     11 C14        -17.4650    -5.5880    11.3150 ca         1 A1H       0.342900
     12 N02        -19.6070    -6.9160     8.7890 nh         1 A1H      -0.798300
     13 N03        -18.5890    -6.0490    10.6990 nb         1 A1H      -0.730000
     14 N04        -16.0260    -5.9100     9.3720 nb         1 A1H      -0.599000
     15 O01        -23.7020    -8.8690     7.8010 os         1 A1H      -0.468000
     16 H102       -19.2050    -6.5560     6.6910 h1         1 A1H       0.048200
     17 H101       -19.1660    -8.2680     7.1800 h1         1 A1H       0.048200
     18 H151       -15.3250    -5.1440    11.1880 h4         1 A1H       0.029100
     19 H061       -21.4340    -8.0690     6.2430 hc         1 A1H       0.062200
     20 H062       -21.6100    -6.4190     6.8510 hc         1 A1H       0.062200
     21 H072       -20.8060    -7.6220    10.4600 h1         1 A1H       0.061700
     22 H071       -21.3840    -6.1210     9.6890 h1         1 A1H       0.061700
     23 H082       -20.6160    -9.8550     8.1100 hc         1 A1H       0.060700
     24 H081       -21.4140    -9.7520     9.6760 hc         1 A1H       0.060700
     25 H092       -23.6190    -6.8180     8.2330 h1         1 A1H       0.051700
     26 H091       -23.5570    -7.9190     9.6470 h1         1 A1H       0.051700
     27 H112       -23.3240   -10.7150     8.7110 h1         1 A1H       0.047200
     28 H111       -22.6730   -10.5270     7.0630 h1         1 A1H       0.047200
     29 H141       -17.5730    -5.2670    12.3500 h4         1 A1H       0.023100
     30 H131       -17.0320    -6.6920     7.7220 h4         1 A1H       0.024100
@<TRIPOS>BOND
     1     1     5 1   
     2     1    12 1   
     3     1    16 1   
     4     1    17 1   
     5     2    10 ar  
     6     2    14 ar  
     7     2    30 1   
     8     3    11 ar  
     9     3    14 ar  
    10     3    18 1   
    11     4     5 1   
    12     4     6 1   
    13     4     7 1   
    14     4     8 1   
    15     5    19 1   
    16     5    20 1   
    17     6    12 1   
    18     6    21 1   
    19     6    22 1   
    20     7     9 1   
    21     7    23 1   
    22     7    24 1   
    23     8    15 1   
    24     8    25 1   
    25     8    26 1   
    26     9    15 1   
    27     9    27 1   
    28     9    28 1   
    29    10    12 1   
    30    10    13 ar  
    31    11    13 ar  
    32    11    29 1   
@<TRIPOS>SUBSTRUCTURE
     1 A1H         1 TEMP              0 ****  ****    0 ROOT
