@<TRIPOS>MOLECULE
A1H
   32    33     1     0     0
SMALL
abcg2


@<TRIPOS>ATOM
      1 N1         -15.3790    -7.2860     8.2260 nc         1 A1H      -0.538800
      2 N3         -19.5810    -7.9510     6.4520 ns         1 A1H      -0.504900
      3 C4         -17.5700    -6.9920     8.3840 cc         1 A1H      -0.139000
      4 C5         -17.3540    -7.8420     7.3140 cd         1 A1H      -0.277600
      5 C6         -18.3420    -8.4810     6.4330 c          1 A1H       0.649700
      6 C7         -20.6650    -8.4450     5.6300 c3         1 A1H       0.119000
      7 C8         -20.6480    -7.8880     4.2200 cy         1 A1H      -0.111700
      8 C10        -21.7320    -6.7010     2.7950 cy         1 A1H      -0.091400
      9 C11        -20.8690    -6.3740     4.0280 cy         1 A1H      -0.087900
     10 C2         -15.9470    -7.9940     7.2690 cd         1 A1H       0.319300
     11 C3         -16.0800    -5.8510    10.0240 c3         1 A1H       0.072900
     12 C9         -21.8830    -8.1370     3.3320 cy         1 A1H      -0.087900
     13 N2         -16.3730    -6.6920     8.8890 na         1 A1H       0.140800
     14 O1         -18.0510    -9.4490     5.7370 o          1 A1H      -0.607100
     15 H8         -19.7320    -7.0750     6.9240 hn         1 A1H       0.305500
     16 H7         -18.4770    -6.6010     8.8200 h4         1 A1H       0.150000
     17 H10        -20.6320    -9.5360     5.6080 h1         1 A1H       0.053700
     18 H9         -21.5990    -8.1650     6.1200 h1         1 A1H       0.053700
     19 H11        -19.7390    -8.2070     3.7040 hc         1 A1H       0.076700
     20 H15        -21.1480    -6.6740     1.8740 hc         1 A1H       0.049200
     21 H14        -22.6410    -6.1180     2.6440 hc         1 A1H       0.049200
     22 H1         -14.0600    -8.6050     6.5050 hc         1 A1H       0.055700
     23 H2         -15.2970    -9.8620     6.4450 hc         1 A1H       0.055700
     24 H3         -15.3400    -8.5450     5.2900 hc         1 A1H       0.055700
     25 H17        -19.9900    -5.7450     3.8850 hc         1 A1H       0.046950
     26 H16        -21.4680    -5.9530     4.8390 hc         1 A1H       0.046950
     27 H4         -15.5760    -6.4240    10.7990 h1         1 A1H       0.058033
     28 H6         -15.4440    -5.0200     9.7230 h1         1 A1H       0.058033
     29 H5         -17.0110    -5.4570    10.4210 h1         1 A1H       0.058033
     30 H13        -21.8400    -8.9610     2.6190 hc         1 A1H       0.046950
     31 H12        -22.7880    -8.2470     3.9340 hc         1 A1H       0.046950
     32 C1         -15.1170    -8.7940     6.3270 c3         1 A1H      -0.121400
@<TRIPOS>BOND
     1     1    10 2   
     2     1    13 1   
     3     2     5 1   
     4     2     6 1   
     5     2    15 1   
     6     3     4 2   
     7     3    13 1   
     8     3    16 1   
     9     4     5 1   
    10     4    10 1   
    11     5    14 2   
    12     6     7 1   
    13     6    17 1   
    14     6    18 1   
    15     7     9 1   
    16     7    12 1   
    17     7    19 1   
    18     8     9 1   
    19     8    12 1   
    20     8    20 1   
    21     8    21 1   
    22     9    25 1   
    23     9    26 1   
    24    10    32 1   
    25    11    13 1   
    26    11    27 1   
    27    11    28 1   
    28    11    29 1   
    29    12    30 1   
    30    12    31 1   
    31    22    32 1   
    32    23    32 1   
    33    24    32 1   
@<TRIPOS>SUBSTRUCTURE
     1 A1H         1 TEMP              0 ****  ****    0 ROOT
