@<TRIPOS>MOLECULE
A1H
   20    20     1     0     0
SMALL
abcg2


@<TRIPOS>ATOM
      1 N1          -4.1400     8.6280    13.2170 n3         1 A1H      -0.726500
      2 N3          -0.8230     5.8670    12.3290 na         1 A1H       0.012800
      3 C4          -0.6940     7.2680    13.8900 cc         1 A1H       0.338900
      4 C5          -2.0980     6.1370    12.6040 cd         1 A1H      -0.040000
      5 C1          -5.5580     8.9170    13.4100 c3         1 A1H       0.172600
      6 C2          -3.3690     9.7660    12.7310 c3         1 A1H       0.172600
      7 C3          -2.0610     7.0590    13.6290 cc         1 A1H      -0.421500
      8 N2           0.0440     6.5330    13.0890 nd         1 A1H      -0.522800
      9 O1          -4.3560     6.7570    14.8630 o          1 A1H      -0.549000
     10 O2          -2.8560     8.6600    15.4700 o          1 A1H      -0.549000
     11 S1          -3.4100     7.7810    14.4470 sy         1 A1H       1.193600
     12 H7          -0.2440     7.9200    14.6220 h4         1 A1H       0.062100
     13 H9          -2.9180     5.6830    12.0720 h4         1 A1H       0.173000
     14 H1          -6.1100     8.0080    13.6330 h1         1 A1H       0.051200
     15 H3          -5.7430     9.6540    14.1970 h1         1 A1H       0.051200
     16 H2          -5.9380     9.3170    12.4720 h1         1 A1H       0.051200
     17 H5          -2.3400     9.4760    12.5230 h1         1 A1H       0.051200
     18 H4          -3.8120    10.0940    11.7920 h1         1 A1H       0.051200
     19 H6          -3.3670    10.6080    13.4280 h1         1 A1H       0.051200
     20 H8          -0.4820     5.2290    11.6230 hn         1 A1H       0.376000
@<TRIPOS>BOND
     1     1     5 1   
     2     1     6 1   
     3     1    11 1   
     4     2     4 1   
     5     2     8 1   
     6     2    20 1   
     7     3     7 1   
     8     3     8 2   
     9     3    12 1   
    10     4     7 2   
    11     4    13 1   
    12     5    14 1   
    13     5    15 1   
    14     5    16 1   
    15     6    17 1   
    16     6    18 1   
    17     6    19 1   
    18     7    11 1   
    19     9    11 2   
    20    10    11 2   
@<TRIPOS>SUBSTRUCTURE
     1 A1H         1 TEMP              0 ****  ****    0 ROOT
