@<TRIPOS>MOLECULE
A1H
   32    33     1     0     0
SMALL
No Charge or Current Charge


@<TRIPOS>ATOM
      1 N1         -15.4820    -7.5050     8.5380 nc         1 A1H      -0.538800
      2 N3         -18.9250    -8.1260     5.4960 ns         1 A1H      -0.504900
      3 C4         -17.3050    -6.7150     7.3450 cc         1 A1H      -0.139000
      4 C5         -17.0940    -8.0350     7.0240 cd         1 A1H      -0.277600
      5 C6         -17.8980    -8.8330     6.0700 c          1 A1H       0.649700
      6 C7         -19.8740    -8.6810     4.5330 c3         1 A1H       0.119000
      7 C8         -20.6550    -7.4150     4.1370 cy         1 A1H      -0.111700
      8 C10        -22.4490    -6.2670     3.9950 cy         1 A1H      -0.091400
      9 C11        -21.5670    -6.7130     5.2070 cy         1 A1H      -0.087900
     10 C2         -15.9770    -8.4620     7.7760 cd         1 A1H       0.319300
     11 C3         -16.0760    -5.1440     8.9360 c3         1 A1H       0.072900
     12 C9         -21.9810    -7.5990     3.3220 cy         1 A1H      -0.087900
     13 N2         -16.3050    -6.4330     8.2670 na         1 A1H       0.140800
     14 O1         -17.6880   -10.0070     5.8040 o          1 A1H      -0.607100
     15 H8         -19.0290    -7.1620     5.7800 hn         1 A1H       0.305500
     16 H7         -18.0350    -5.9820     7.0230 h4         1 A1H       0.150000
     17 H10        -19.3560    -9.1090     3.6640 h1         1 A1H       0.053700
     18 H9         -20.5330    -9.4180     5.0120 h1         1 A1H       0.053700
     19 H11        -19.9560    -6.7250     3.6450 hc         1 A1H       0.076700
     20 H15        -22.1060    -5.3550     3.4910 hc         1 A1H       0.049200
     21 H14        -23.5230    -6.1780     4.1890 hc         1 A1H       0.049200
     22 H1         -14.4860    -9.8730     8.4650 hc         1 A1H       0.055700
     23 H2         -16.0640   -10.5880     8.1030 hc         1 A1H       0.055700
     24 H3         -14.9880   -10.0950     6.7820 hc         1 A1H       0.055700
     25 H17        -21.1020    -5.9050     5.7820 hc         1 A1H       0.046950
     26 H16        -22.0650    -7.3960     5.9060 hc         1 A1H       0.046950
     27 H4         -16.1580    -5.2750    10.0210 h1         1 A1H       0.058033
     28 H6         -15.0730    -4.7760     8.6870 h1         1 A1H       0.058033
     29 H5         -16.8230    -4.4150     8.6010 h1         1 A1H       0.058033
     30 H13        -21.8800    -7.5750     2.2310 hc         1 A1H       0.046950
     31 H12        -22.5730    -8.4810     3.5980 hc         1 A1H       0.046950
     32 C1         -15.3440    -9.8270     7.7830 c3         1 A1H      -0.121400
@<TRIPOS>BOND
     1     1    10 2   
     2     1    13 1   
     3     2     5 1   
     4     2     6 1   
     5     2    15 1   
     6     3     4 2   
     7     3    13 1   
     8     3    16 1   
     9     4     5 1   
    10     4    10 1   
    11     5    14 2   
    12     6     7 1   
    13     6    17 1   
    14     6    18 1   
    15     7     9 1   
    16     7    12 1   
    17     7    19 1   
    18     8     9 1   
    19     8    12 1   
    20     8    20 1   
    21     8    21 1   
    22     9    25 1   
    23     9    26 1   
    24    10    32 1   
    25    11    13 1   
    26    11    27 1   
    27    11    28 1   
    28    11    29 1   
    29    12    30 1   
    30    12    31 1   
    31    22    32 1   
    32    23    32 1   
    33    24    32 1   
@<TRIPOS>SUBSTRUCTURE
     1 A1H         1 TEMP              0 ****  ****    0 ROOT
