@<TRIPOS>MOLECULE
A1H
   20    20     1     0     0
SMALL
No Charge or Current Charge


@<TRIPOS>ATOM
      1 N1          -4.3500     8.5930    13.1550 n3         1 A1H      -0.726500
      2 N3          -0.5310     5.9640    12.4190 na         1 A1H       0.012800
      3 C4          -0.8030     7.4010    13.9480 cc         1 A1H       0.338900
      4 C5          -1.9160     6.0470    12.6000 cd         1 A1H      -0.040000
      5 C1          -5.5580     9.2630    13.6780 c3         1 A1H       0.172600
      6 C2          -3.4110     9.5180    12.4880 c3         1 A1H       0.172600
      7 C3          -2.0820     6.9760    13.5880 cc         1 A1H      -0.421500
      8 N2           0.1680     6.8190    13.2710 nd         1 A1H      -0.522800
      9 O1          -4.4910     6.3530    14.3110 o          1 A1H      -0.549000
     10 O2          -3.3140     8.3200    15.4680 o          1 A1H      -0.549000
     11 S1          -3.6200     7.5330    14.2690 sy         1 A1H       1.193600
     12 H7          -0.5450     8.1350    14.7010 h4         1 A1H       0.062100
     13 H9          -2.6330     5.4620    12.0310 h4         1 A1H       0.173000
     14 H1          -6.2830     8.5290    14.0550 h1         1 A1H       0.051200
     15 H3          -5.3070     9.9500    14.4970 h1         1 A1H       0.051200
     16 H2          -6.0530     9.8420    12.8880 h1         1 A1H       0.051200
     17 H5          -2.6270     8.9710    11.9490 h1         1 A1H       0.051200
     18 H4          -3.9380    10.1410    11.7540 h1         1 A1H       0.051200
     19 H6          -2.9300    10.1850    13.2170 h1         1 A1H       0.051200
     20 H8          -0.0510     5.3610    11.7530 hn         1 A1H       0.376000
@<TRIPOS>BOND
     1     1     5 1   
     2     1     6 1   
     3     1    11 1   
     4     2     4 1   
     5     2     8 1   
     6     2    20 1   
     7     3     7 1   
     8     3     8 2   
     9     3    12 1   
    10     4     7 2   
    11     4    13 1   
    12     5    14 1   
    13     5    15 1   
    14     5    16 1   
    15     6    17 1   
    16     6    18 1   
    17     6    19 1   
    18     7    11 1   
    19     9    11 2   
    20    10    11 2   
@<TRIPOS>SUBSTRUCTURE
     1 A1H         1 TEMP              0 ****  ****    0 ROOT
