@<TRIPOS>MOLECULE
A1H
   27    28     1     0     0
SMALL
abcg2


@<TRIPOS>ATOM
      1 N1          -0.9970   -10.3950    30.9140 ns         1 A1H      -0.508600
      2 N3          -0.2600    -8.3390    30.2510 ns         1 A1H      -0.463500
      3 C4          -4.7150    -9.6490    28.9630 c3         1 A1H       0.246100
      4 C5          -4.5830   -10.9640    28.2300 ca         1 A1H      -0.105300
      5 C6          -3.9470   -11.0360    26.9940 ca         1 A1H      -0.098500
      6 C7          -3.8740   -12.2390    26.3060 ca         1 A1H      -0.112000
      7 C8          -4.4370   -13.3890    26.8460 ca         1 A1H      -0.106000
      8 C10         -5.1380   -12.1220    28.7670 ca         1 A1H      -0.098500
      9 C1           0.0110    -9.4900    30.9590 c          1 A1H       0.613000
     10 C11         -1.3940    -8.0370    29.5320 c          1 A1H       0.580200
     11 C2          -2.1860   -10.1960    30.2500 cc         1 A1H      -0.107400
     12 C3          -2.4280    -9.0680    29.5500 cd         1 A1H      -0.029200
     13 C9          -5.0690   -13.3280    28.0810 ca         1 A1H      -0.112000
     14 N2          -3.5630    -8.8000    28.8120 nu         1 A1H      -0.778200
     15 O1           1.0560    -9.6590    31.5580 o          1 A1H      -0.561000
     16 O2          -1.5080    -6.9760    28.9450 o          1 A1H      -0.534000
     17 H1          -0.8570   -11.2650    31.4050 hn         1 A1H       0.462000
     18 H11          0.4690    -7.6350    30.2610 hn         1 A1H       0.345500
     19 H4          -4.9470    -9.8470    30.0200 h1         1 A1H       0.044700
     20 H5          -5.5710    -9.1040    28.5610 h1         1 A1H       0.044700
     21 H6          -3.5020   -10.1440    26.5700 ha         1 A1H       0.118000
     22 H7          -3.3750   -12.2800    25.3460 ha         1 A1H       0.114000
     23 H8          -4.3780   -14.3280    26.3100 ha         1 A1H       0.114000
     24 H10         -5.6220   -12.0830    29.7360 ha         1 A1H       0.118000
     25 H2          -2.8840   -11.0150    30.3260 h4         1 A1H       0.216000
     26 H9          -5.5020   -14.2200    28.5150 ha         1 A1H       0.114000
     27 H3          -3.7730    -7.8160    28.7480 hn         1 A1H       0.485000
@<TRIPOS>BOND
     1     1     9 1   
     2     1    11 1   
     3     1    17 1   
     4     2     9 1   
     5     2    10 1   
     6     2    18 1   
     7     3     4 1   
     8     3    14 1   
     9     3    19 1   
    10     3    20 1   
    11     4     5 ar  
    12     4     8 ar  
    13     5     6 ar  
    14     5    21 1   
    15     6     7 ar  
    16     6    22 1   
    17     7    13 ar  
    18     7    23 1   
    19     8    13 ar  
    20     8    24 1   
    21     9    15 2   
    22    10    12 1   
    23    10    16 2   
    24    11    12 2   
    25    11    25 1   
    26    12    14 1   
    27    13    26 1   
    28    14    27 1   
@<TRIPOS>SUBSTRUCTURE
     1 A1H         1 TEMP              0 ****  ****    0 ROOT
