@<TRIPOS>MOLECULE
A1H
   25    25     1     0     0
SMALL
abcg2


@<TRIPOS>ATOM
      1 N1           0.9200   -12.9250    10.2310 n7         1 A1H      -0.874400
      2 C4           0.4080   -11.5050    12.1580 c6         1 A1H      -0.100900
      3 C5           0.8920   -10.1540    11.6700 c6         1 A1H       0.167100
      4 C6           2.9940   -10.9390    12.4860 c6         1 A1H       0.167100
      5 C7           2.7590   -12.1320    11.5780 c6         1 A1H      -0.100900
      6 C1          -0.3340   -13.6130     9.9920 c3         1 A1H       0.151100
      7 C2           1.2970   -12.6370    11.6160 c6         1 A1H       0.196200
      8 C3           1.1780   -13.8850    12.4980 c3         1 A1H       0.136600
      9 O1           1.6940   -13.6220    13.7830 oh         1 A1H      -0.657000
     10 O2           2.1880    -9.8280    12.1440 os         1 A1H      -0.467000
     11 H4           1.6680   -13.4490     9.7920 hn         1 A1H       0.413000
     12 H9          -0.6290   -11.6450    11.8440 hc         1 A1H       0.054950
     13 H8           0.3970   -11.5180    13.2500 hc         1 A1H       0.054950
     14 H11          0.8780   -10.1450    10.5720 h1         1 A1H       0.045700
     15 H10          0.2160    -9.3640    12.0050 h1         1 A1H       0.045700
     16 H13          4.0340   -10.6110    12.4030 h1         1 A1H       0.045700
     17 H12          2.8350   -11.2280    13.5310 h1         1 A1H       0.045700
     18 H15          2.9950   -11.8350    10.5520 hc         1 A1H       0.054950
     19 H14          3.4620   -12.9280    11.8390 hc         1 A1H       0.054950
     20 H1          -0.4960   -13.6780     8.9160 h1         1 A1H       0.029033
     21 H3          -0.4020   -14.6310    10.3930 h1         1 A1H       0.029033
     22 H2          -1.1700   -13.0440    10.4010 h1         1 A1H       0.029033
     23 H6           0.1250   -14.1920    12.5570 h1         1 A1H       0.018200
     24 H5           1.7260   -14.7030    12.0060 h1         1 A1H       0.018200
     25 H7           1.5560   -14.4000    14.3300 ho         1 A1H       0.444000
@<TRIPOS>BOND
     1     1     6 1   
     2     1     7 1   
     3     1    11 1   
     4     2     3 1   
     5     2     7 1   
     6     2    12 1   
     7     2    13 1   
     8     3    10 1   
     9     3    14 1   
    10     3    15 1   
    11     4     5 1   
    12     4    10 1   
    13     4    16 1   
    14     4    17 1   
    15     5     7 1   
    16     5    18 1   
    17     5    19 1   
    18     6    20 1   
    19     6    21 1   
    20     6    22 1   
    21     7     8 1   
    22     8     9 1   
    23     8    23 1   
    24     8    24 1   
    25     9    25 1   
@<TRIPOS>SUBSTRUCTURE
     1 A1H         1 TEMP              0 ****  ****    0 ROOT
