@<TRIPOS>MOLECULE
A1H
   31    32     1     0     0
SMALL
abcg2


@<TRIPOS>ATOM
      1 N1         -17.8330    -7.2240     8.7300 nh         1 A1H      -0.770300
      2 N3         -16.7090    -6.4010     6.8960 nb         1 A1H      -0.760000
      3 C4         -18.3060    -7.1300    10.0980 c6         1 A1H       0.172800
      4 C5         -19.5890    -6.3050    10.1540 c6         1 A1H       0.121800
      5 C6         -16.8870    -6.3740     8.2200 ca         1 A1H       0.626900
      6 C7         -16.0990    -5.5350     9.0330 ca         1 A1H      -0.235000
      7 C8         -15.1270    -4.7640     8.4290 ca         1 A1H      -0.035000
      8 C10        -15.7720    -5.6540     6.3240 ca         1 A1H       0.406300
      9 C1         -21.2140    -7.6780     7.0620 c3         1 A1H      -0.086100
     10 C11        -15.6450    -5.7420     4.8310 c3         1 A1H      -0.147400
     11 C2         -20.1370    -7.0160     7.9020 c6         1 A1H       0.132500
     12 C3         -18.8360    -7.8240     7.8660 c6         1 A1H       0.178800
     13 C9         -14.9410    -4.8130     7.0540 ca         1 A1H      -0.222000
     14 N2         -20.6220    -6.8080     9.2630 n7         1 A1H      -0.847400
     15 H7         -18.5090    -8.1450    10.4550 h1         1 A1H       0.055700
     16 H8         -17.5440    -6.7250    10.7580 h1         1 A1H       0.055700
     17 H9         -19.9790    -6.2860    11.1740 h1         1 A1H       0.060200
     18 H10        -19.3610    -5.2700     9.8790 h1         1 A1H       0.060200
     19 H12        -16.2320    -5.4740    10.1020 ha         1 A1H       0.119000
     20 H13        -14.5110    -4.1160     9.0400 ha         1 A1H       0.112000
     21 H1         -22.1310    -7.0890     7.0690 hc         1 A1H       0.040367
     22 H3         -20.8890    -7.7870     6.0270 hc         1 A1H       0.040367
     23 H2         -21.4490    -8.6750     7.4430 hc         1 A1H       0.040367
     24 H15        -16.2970    -6.5150     4.4300 hc         1 A1H       0.050033
     25 H17        -15.9100    -4.7940     4.3600 hc         1 A1H       0.050033
     26 H16        -14.6190    -5.9670     4.5360 hc         1 A1H       0.050033
     27 H4         -19.9200    -6.0260     7.4810 h1         1 A1H       0.072700
     28 H5         -19.0320    -8.8410     8.2270 h1         1 A1H       0.068200
     29 H6         -18.4520    -7.9010     6.8520 h1         1 A1H       0.068200
     30 H14        -14.1860    -4.2130     6.5640 ha         1 A1H       0.122000
     31 H18        -20.9580    -7.6960     9.6230 hn         1 A1H       0.401000
@<TRIPOS>BOND
     1     1     3 1   
     2     1     5 1   
     3     1    12 1   
     4     2     5 ar  
     5     2     8 ar  
     6     3     4 1   
     7     3    15 1   
     8     3    16 1   
     9     4    14 1   
    10     4    17 1   
    11     4    18 1   
    12     5     6 ar  
    13     6     7 ar  
    14     6    19 1   
    15     7    13 ar  
    16     7    20 1   
    17     8    10 1   
    18     8    13 ar  
    19     9    11 1   
    20     9    21 1   
    21     9    22 1   
    22     9    23 1   
    23    10    24 1   
    24    10    25 1   
    25    10    26 1   
    26    11    12 1   
    27    11    14 1   
    28    11    27 1   
    29    12    28 1   
    30    12    29 1   
    31    13    30 1   
    32    14    31 1   
@<TRIPOS>SUBSTRUCTURE
     1 A1H         1 TEMP              0 ****  ****    0 ROOT
