@<TRIPOS>MOLECULE
A1H
   73    75     1     0     0
SMALL
No Charge or Current Charge


@<TRIPOS>ATOM
      1 C14        -30.5700    17.7770    -4.9200 c5         1 A1H      -0.036500
      2 C6         -32.0940    17.6330    -5.0640 c2         1 A1H      -0.075400
      3 C9         -32.5540    16.1710    -5.1700 c6         1 A1H      -0.043200
      4 C11        -31.7610    15.3550    -6.2320 c6         1 A1H      -0.070400
      5 C12        -30.2250    15.5770    -6.1360 c6         1 A1H      -0.063400
      6 C5         -35.2420    19.8150    -5.2530 ce         1 A1H      -0.063200
      7 C10        -34.7470    21.1980    -5.4230 ce         1 A1H      -0.110200
      8 C19        -33.8470    21.5300    -6.3820 c2         1 A1H      -0.292000
      9 C21        -25.8490    17.0440    -5.7480 c3         1 A1H      -0.090100
     10 C23        -25.8500    17.0450    -8.7740 c2         1 A1H      -0.203200
     11 C25        -23.6030    17.1220    -9.9780 c3         1 A1H       0.219200
     12 C17        -28.3890    17.4230    -5.7030 c5         1 A1H      -0.055700
     13 C7         -32.9670    18.6990    -5.0390 cf         1 A1H      -0.191000
     14 C28        -34.4520    18.7070    -5.1210 cf         1 A1H      -0.148000
     15 C4         -36.7780    19.6870    -5.3100 c6         1 A1H       0.178500
     16 C3         -37.4600    20.6940    -4.3190 c6         1 A1H       0.142300
     17 C2         -36.9350    22.1370    -4.5450 c6         1 A1H      -0.061400
     18 C1         -35.3910    22.2040    -4.4440 c6         1 A1H       0.214500
     19 C16        -28.4690    18.9570    -5.3570 c5         1 A1H      -0.073400
     20 C20        -27.1650    16.9490    -6.5690 c3         1 A1H      -0.043700
     21 C22        -26.9750    17.6440    -7.9510 c3         1 A1H      -0.044200
     22 C24        -24.7340    17.6960    -9.1500 c2         1 A1H      -0.259200
     23 C26        -22.3910    18.0800   -10.0130 c3         1 A1H      -0.098100
     24 C15        -29.9710    19.2160    -4.9790 c5         1 A1H      -0.070400
     25 C27        -24.0790    16.7770   -11.4050 c3         1 A1H      -0.098100
     26 C13        -29.8690    17.0940    -6.1440 c5         1 A1H      -0.041000
     27 O4         -37.2160    19.9080    -6.6610 oh         1 A1H      -0.640000
     28 O2         -37.2300    20.3150    -2.9500 oh         1 A1H      -0.651000
     29 O1         -34.9490    23.5450    -4.6880 oh         1 A1H      -0.656000
     30 O3         -23.1920    15.9230    -9.3390 oh         1 A1H      -0.659000
     31 H1         -30.2910    17.3030    -3.9680 hc         1 A1H       0.052700
     32 H2         -33.6220    16.0930    -5.4020 hc         1 A1H       0.045200
     33 H3         -32.4250    15.6950    -4.1880 hc         1 A1H       0.045200
     34 H4         -32.1160    15.6240    -7.2360 hc         1 A1H       0.041700
     35 H5         -31.9860    14.2860    -6.1160 hc         1 A1H       0.041700
     36 H6         -29.8530    15.1140    -5.2110 hc         1 A1H       0.040700
     37 H7         -29.7180    15.0590    -6.9610 hc         1 A1H       0.040700
     38 H8         -29.8430    18.6720    -7.7310 hc         1 A1H       0.035367
     39 H9         -30.0140    17.0310    -8.3570 hc         1 A1H       0.035367
     40 H10        -31.3800    17.8350    -7.6080 hc         1 A1H       0.035367
     41 H11        -33.4930    22.5480    -6.5390 ha         1 A1H       0.168500
     42 H12        -33.4470    20.7770    -7.0620 ha         1 A1H       0.168500
     43 H13        -25.9470    16.5250    -4.7870 hc         1 A1H       0.033367
     44 H14        -25.0110    16.5810    -6.2810 hc         1 A1H       0.033367
     45 H15        -25.5890    18.0900    -5.5470 hc         1 A1H       0.033367
     46 H16        -26.0160    16.0060    -9.0670 ha         1 A1H       0.166000
     47 H17        -28.2230    16.8900    -4.7570 hc         1 A1H       0.043700
     48 H18        -32.5370    19.6920    -4.9250 ha         1 A1H       0.179000
     49 H19        -34.9600    17.7460    -5.0450 ha         1 A1H       0.166000
     50 H20        -37.0620    18.6680    -5.0070 h1         1 A1H       0.027700
     51 H21        -38.5430    20.6910    -4.5110 h1         1 A1H       0.028700
     52 H22        -37.3890    22.8180    -3.8130 hc         1 A1H       0.066200
     53 H23        -37.2520    22.4910    -5.5350 hc         1 A1H       0.066200
     54 H24        -35.1020    21.9090    -3.4230 h1         1 A1H       0.050700
     55 H25        -27.7950    19.2080    -4.5300 hc         1 A1H       0.042700
     56 H26        -28.1760    19.5930    -6.1980 hc         1 A1H       0.042700
     57 H27        -27.3170    15.8830    -6.7760 hc         1 A1H       0.047700
     58 H28        -26.7960    18.7150    -7.7990 hc         1 A1H       0.050200
     59 H29        -27.8870    17.5690    -8.5450 hc         1 A1H       0.050200
     60 H30        -24.5920    18.7380    -8.8570 ha         1 A1H       0.177000
     61 H31        -22.0390    18.3030    -8.9990 hc         1 A1H       0.042200
     62 H32        -21.5590    17.6370   -10.5730 hc         1 A1H       0.042200
     63 H33        -22.6600    19.0260   -10.4970 hc         1 A1H       0.042200
     64 H34        -30.4520    19.8380    -5.7410 hc         1 A1H       0.044700
     65 H35        -30.0730    19.7430    -4.0230 hc         1 A1H       0.044700
     66 H36        -24.9050    16.0560   -11.3820 hc         1 A1H       0.042200
     67 H37        -24.4310    17.6790   -11.9210 hc         1 A1H       0.042200
     68 H38        -23.2640    16.3420   -11.9960 hc         1 A1H       0.042200
     69 H39        -38.1690    19.6740    -6.6930 ho         1 A1H       0.439000
     70 H40        -37.6980    19.4630    -2.8050 ho         1 A1H       0.441000
     71 H41        -33.9740    23.5320    -4.5720 ho         1 A1H       0.444000
     72 H42        -23.6790    15.9110    -8.4890 ho         1 A1H       0.440000
     73 C18        -30.2960    17.6950    -7.5320 c3         1 A1H      -0.078100
@<TRIPOS>BOND
     1     1     2 1   
     2     1    24 1   
     3     1    26 1   
     4     1    31 1   
     5     2     3 1   
     6     2    13 2   
     7     3     4 1   
     8     3    32 1   
     9     3    33 1   
    10     4     5 1   
    11     4    34 1   
    12     4    35 1   
    13     5    26 1   
    14     5    36 1   
    15     5    37 1   
    16     6     7 1   
    17     6    14 2   
    18     6    15 1   
    19     7     8 2   
    20     7    18 1   
    21     8    41 1   
    22     8    42 1   
    23     9    20 1   
    24     9    43 1   
    25     9    44 1   
    26     9    45 1   
    27    10    21 1   
    28    10    22 2   
    29    10    46 1   
    30    11    22 1   
    31    11    23 1   
    32    11    25 1   
    33    11    30 1   
    34    12    19 1   
    35    12    20 1   
    36    12    26 1   
    37    12    47 1   
    38    13    14 1   
    39    13    48 1   
    40    14    49 1   
    41    15    16 1   
    42    15    27 1   
    43    15    50 1   
    44    16    17 1   
    45    16    28 1   
    46    16    51 1   
    47    17    18 1   
    48    17    52 1   
    49    17    53 1   
    50    18    29 1   
    51    18    54 1   
    52    19    24 1   
    53    19    55 1   
    54    19    56 1   
    55    20    21 1   
    56    20    57 1   
    57    21    58 1   
    58    21    59 1   
    59    22    60 1   
    60    23    61 1   
    61    23    62 1   
    62    23    63 1   
    63    24    64 1   
    64    24    65 1   
    65    25    66 1   
    66    25    67 1   
    67    25    68 1   
    68    26    73 1   
    69    27    69 1   
    70    28    70 1   
    71    29    71 1   
    72    30    72 1   
    73    38    73 1   
    74    39    73 1   
    75    40    73 1   
@<TRIPOS>SUBSTRUCTURE
     1 A1H         1 TEMP              0 ****  ****    0 ROOT
