@<TRIPOS>MOLECULE
A1H
   73    75     1     0     0
SMALL
abcg2


@<TRIPOS>ATOM
      1 C14        -30.5840    17.8220    -4.9320 c5         1 A1H      -0.036500
      2 C6         -32.0570    17.7180    -5.1680 c2         1 A1H      -0.075400
      3 C9         -32.4820    16.2790    -5.3120 c6         1 A1H      -0.043200
      4 C11        -31.6570    15.5240    -6.3630 c6         1 A1H      -0.070400
      5 C12        -30.1500    15.6990    -6.1690 c6         1 A1H      -0.063400
      6 C5         -35.1200    19.8120    -5.5480 ce         1 A1H      -0.063200
      7 C10        -34.6850    21.2220    -5.5460 ce         1 A1H      -0.110200
      8 C19        -33.8100    21.7110    -6.4220 c2         1 A1H      -0.292000
      9 C21        -25.9540    16.6580    -5.5850 c3         1 A1H      -0.090100
     10 C23        -25.9420    17.5170    -8.5850 c2         1 A1H      -0.203200
     11 C25        -23.8300    17.1790    -9.9600 c3         1 A1H       0.219200
     12 C17        -28.3460    17.4350    -5.5420 c5         1 A1H      -0.055700
     13 C7         -32.8700    18.7850    -5.2300 cf         1 A1H      -0.191000
     14 C28        -34.3060    18.7500    -5.4290 cf         1 A1H      -0.148000
     15 C4         -36.6090    19.6350    -5.6550 c6         1 A1H       0.178500
     16 C3         -37.3120    20.4420    -4.5500 c6         1 A1H       0.142300
     17 C2         -36.8800    21.8990    -4.5840 c6         1 A1H      -0.061400
     18 C1         -35.3640    22.0590    -4.4820 c6         1 A1H       0.214500
     19 C16        -28.4050    18.8890    -5.0240 c5         1 A1H      -0.073400
     20 C20        -27.1570    17.0550    -6.4410 c3         1 A1H      -0.043700
     21 C22        -26.7260    18.1230    -7.4630 c3         1 A1H      -0.044200
     22 C24        -24.6710    17.7850    -8.8620 c2         1 A1H      -0.259200
     23 C26        -23.3780    18.2810   -10.9130 c3         1 A1H      -0.098100
     24 C15        -29.8950    19.1650    -4.6990 c5         1 A1H      -0.070400
     25 C27        -24.5540    16.0840   -10.7350 c3         1 A1H      -0.098100
     26 C13        -29.7680    17.1750    -6.0750 c5         1 A1H      -0.041000
     27 O4         -37.0040    20.0850    -6.9340 oh         1 A1H      -0.640000
     28 O2         -36.9990    19.9250    -3.2760 oh         1 A1H      -0.651000
     29 O1         -35.0720    23.4300    -4.5630 oh         1 A1H      -0.656000
     30 O3         -22.6370    16.6570    -9.3790 oh         1 A1H      -0.659000
     31 H1         -30.3810    17.2010    -4.0460 hc         1 A1H       0.052700
     32 H2         -33.5410    16.1790    -5.5460 hc         1 A1H       0.045200
     33 H3         -32.3340    15.7900    -4.3420 hc         1 A1H       0.045200
     34 H4         -31.9480    15.8630    -7.3600 hc         1 A1H       0.041700
     35 H5         -31.9140    14.4630    -6.3170 hc         1 A1H       0.041700
     36 H6         -29.8440    15.1950    -5.2450 hc         1 A1H       0.040700
     37 H7         -29.6130    15.2070    -6.9860 hc         1 A1H       0.040700
     38 H8         -29.7370    18.9230    -7.4030 hc         1 A1H       0.035367
     39 H9         -29.4750    17.3840    -8.2140 hc         1 A1H       0.035367
     40 H10        -31.0850    17.8430    -7.6880 hc         1 A1H       0.035367
     41 H11        -33.5170    22.7530    -6.4290 ha         1 A1H       0.168500
     42 H12        -33.3640    21.0770    -7.1760 ha         1 A1H       0.168500
     43 H13        -26.1970    15.8240    -4.9240 hc         1 A1H       0.033367
     44 H14        -25.1050    16.3550    -6.1990 hc         1 A1H       0.033367
     45 H15        -25.6280    17.4930    -4.9600 hc         1 A1H       0.033367
     46 H16        -26.4850    16.7930    -9.1880 ha         1 A1H       0.166000
     47 H17        -28.2680    16.7880    -4.6590 hc         1 A1H       0.043700
     48 H18        -32.4310    19.7680    -5.1060 ha         1 A1H       0.179000
     49 H19        -34.7790    17.7730    -5.4530 ha         1 A1H       0.166000
     50 H20        -36.8610    18.5710    -5.5230 h1         1 A1H       0.027700
     51 H21        -38.3980    20.3940    -4.7270 h1         1 A1H       0.028700
     52 H22        -37.3640    22.4440    -3.7690 hc         1 A1H       0.066200
     53 H23        -37.2250    22.3500    -5.5180 hc         1 A1H       0.066200
     54 H24        -35.0440    21.6570    -3.5100 h1         1 A1H       0.050700
     55 H25        -27.7670    19.0200    -4.1490 hc         1 A1H       0.042700
     56 H26        -28.0480    19.5940    -5.7750 hc         1 A1H       0.042700
     57 H27        -27.4620    16.1650    -7.0050 hc         1 A1H       0.047700
     58 H28        -26.1310    18.8960    -6.9670 hc         1 A1H       0.050200
     59 H29        -27.6000    18.6270    -7.8790 hc         1 A1H       0.050200
     60 H30        -24.1450    18.5130    -8.2450 ha         1 A1H       0.177000
     61 H31        -22.8550    19.0770   -10.3800 hc         1 A1H       0.042200
     62 H32        -22.7070    17.8830   -11.6770 hc         1 A1H       0.042200
     63 H33        -24.2380    18.7230   -11.4160 hc         1 A1H       0.042200
     64 H34        -30.2930    19.9360    -5.3620 hc         1 A1H       0.044700
     65 H35        -30.0430    19.5240    -3.6800 hc         1 A1H       0.044700
     66 H36        -24.8750    15.2720   -10.0790 hc         1 A1H       0.042200
     67 H37        -25.4370    16.4670   -11.2470 hc         1 A1H       0.042200
     68 H38        -23.8900    15.6640   -11.4910 hc         1 A1H       0.042200
     69 H39        -37.9630    20.0200    -6.9970 ho         1 A1H       0.439000
     70 H40        -37.2450    18.9950    -3.2520 ho         1 A1H       0.441000
     71 H41        -34.1540    23.5640    -4.3040 ho         1 A1H       0.444000
     72 H42        -22.8900    15.9740    -8.7480 ho         1 A1H       0.440000
     73 C18        -30.0300    17.8720    -7.4120 c3         1 A1H      -0.078100
@<TRIPOS>BOND
     1     1     2 1   
     2     1    24 1   
     3     1    26 1   
     4     1    31 1   
     5     2     3 1   
     6     2    13 2   
     7     3     4 1   
     8     3    32 1   
     9     3    33 1   
    10     4     5 1   
    11     4    34 1   
    12     4    35 1   
    13     5    26 1   
    14     5    36 1   
    15     5    37 1   
    16     6     7 1   
    17     6    14 2   
    18     6    15 1   
    19     7     8 2   
    20     7    18 1   
    21     8    41 1   
    22     8    42 1   
    23     9    20 1   
    24     9    43 1   
    25     9    44 1   
    26     9    45 1   
    27    10    21 1   
    28    10    22 2   
    29    10    46 1   
    30    11    22 1   
    31    11    23 1   
    32    11    25 1   
    33    11    30 1   
    34    12    19 1   
    35    12    20 1   
    36    12    26 1   
    37    12    47 1   
    38    13    14 1   
    39    13    48 1   
    40    14    49 1   
    41    15    16 1   
    42    15    27 1   
    43    15    50 1   
    44    16    17 1   
    45    16    28 1   
    46    16    51 1   
    47    17    18 1   
    48    17    52 1   
    49    17    53 1   
    50    18    29 1   
    51    18    54 1   
    52    19    24 1   
    53    19    55 1   
    54    19    56 1   
    55    20    21 1   
    56    20    57 1   
    57    21    58 1   
    58    21    59 1   
    59    22    60 1   
    60    23    61 1   
    61    23    62 1   
    62    23    63 1   
    63    24    64 1   
    64    24    65 1   
    65    25    66 1   
    66    25    67 1   
    67    25    68 1   
    68    26    73 1   
    69    27    69 1   
    70    28    70 1   
    71    29    71 1   
    72    30    72 1   
    73    38    73 1   
    74    39    73 1   
    75    40    73 1   
@<TRIPOS>SUBSTRUCTURE
     1 A1H         1 TEMP              0 ****  ****    0 ROOT
