@<TRIPOS>MOLECULE
A1H
   25    25     1     0     0
SMALL
No Charge or Current Charge


@<TRIPOS>ATOM
      1 N1           0.9100   -12.9800    10.2060 n7         1 A1H      -0.874400
      2 C4           0.3690   -11.4610    12.1410 c6         1 A1H      -0.100900
      3 C5           0.8840   -10.0800    11.6760 c6         1 A1H       0.167100
      4 C6           3.0380   -10.9400    12.5240 c6         1 A1H       0.167100
      5 C7           2.7830   -12.0900    11.5210 c6         1 A1H      -0.100900
      6 C1          -0.3870   -13.6510     9.9480 c3         1 A1H       0.151100
      7 C2           1.3000   -12.6060    11.6000 c6         1 A1H       0.196200
      8 C3           1.1980   -13.8820    12.5350 c3         1 A1H       0.136600
      9 O1           1.7170   -13.6840    13.8620 oh         1 A1H      -0.657000
     10 O2           2.1970    -9.7900    12.2320 os         1 A1H      -0.467000
     11 H4           1.6490   -13.5810     9.8200 hn         1 A1H       0.413000
     12 H9          -0.6700   -11.5970    11.8220 hc         1 A1H       0.054950
     13 H8           0.3400   -11.4680    13.2380 hc         1 A1H       0.054950
     14 H11          0.9480   -10.0600    10.5780 h1         1 A1H       0.045700
     15 H10          0.1870    -9.2890    11.9850 h1         1 A1H       0.045700
     16 H13          4.0910   -10.6270    12.4830 h1         1 A1H       0.045700
     17 H12          2.8320   -11.2800    13.5490 h1         1 A1H       0.045700
     18 H15          3.0170   -11.7180    10.5140 hc         1 A1H       0.054950
     19 H14          3.4890   -12.9100    11.7080 hc         1 A1H       0.054950
     20 H1          -0.5240   -13.8060     8.8690 h1         1 A1H       0.029033
     21 H3          -0.4290   -14.6360    10.4310 h1         1 A1H       0.029033
     22 H2          -1.2340   -13.0540    10.3060 h1         1 A1H       0.029033
     23 H6           0.1450   -14.1840    12.6010 h1         1 A1H       0.018200
     24 H5           1.7420   -14.7060    12.0530 h1         1 A1H       0.018200
     25 H7           1.6000   -14.5320    14.3450 ho         1 A1H       0.444000
@<TRIPOS>BOND
     1     1     6 1   
     2     1     7 1   
     3     1    11 1   
     4     2     3 1   
     5     2     7 1   
     6     2    12 1   
     7     2    13 1   
     8     3    10 1   
     9     3    14 1   
    10     3    15 1   
    11     4     5 1   
    12     4    10 1   
    13     4    16 1   
    14     4    17 1   
    15     5     7 1   
    16     5    18 1   
    17     5    19 1   
    18     6    20 1   
    19     6    21 1   
    20     6    22 1   
    21     7     8 1   
    22     8     9 1   
    23     8    23 1   
    24     8    24 1   
    25     9    25 1   
@<TRIPOS>SUBSTRUCTURE
     1 A1H         1 TEMP              0 ****  ****    0 ROOT
