@<TRIPOS>MOLECULE
A1H
   20    19     1     0     0
SMALL
No Charge or Current Charge


@<TRIPOS>ATOM
      1 C5           1.7720     2.5630    -2.6230 c3         1 A1H       0.167600
      2 C2          -0.7740     1.8580    -0.8950 c3         1 A1H       0.372600
      3 C4           1.6270     1.4050    -1.6050 c3         1 A1H       0.058600
      4 F1          -1.5730     1.9400     0.1970 f          1 A1H      -0.198000
      5 C7           0.6660     0.2350     0.3900 c3         1 A1H       0.075900
      6 C8           1.1440     2.6870     0.5330 c3         1 A1H       0.075900
      7 F6           2.3090     3.6590    -2.0330 f          1 A1H      -0.236000
      8 N3           0.6620     1.5580    -0.4010 n4         1 A1H      -0.546000
      9 H51          2.4350     2.2520    -3.4400 h1         1 A1H       0.087200
     10 H52          0.7980     2.8280    -3.0510 h1         1 A1H       0.087200
     11 H22         -1.1200     1.0500    -1.5430 hx         1 A1H       0.105200
     12 H21         -0.7920     2.8080    -1.4320 hx         1 A1H       0.105200
     13 H41          2.6200     1.1910    -1.2020 hx         1 A1H       0.108700
     14 H42          1.3080     0.5200    -2.1610 hx         1 A1H       0.108700
     15 H71          1.6800     0.0250     0.7380 hx         1 A1H       0.104533
     16 H72         -0.0020     0.3230     1.2490 hx         1 A1H       0.104533
     17 H73          0.3260    -0.5770    -0.2550 hx         1 A1H       0.104533
     18 H83          2.1660     2.4780     0.8550 hx         1 A1H       0.104533
     19 H82          1.1160     3.6400     0.0010 hx         1 A1H       0.104533
     20 H81          0.4900     2.7390     1.4060 hx         1 A1H       0.104533
@<TRIPOS>BOND
     1     1     3 1   
     2     1     7 1   
     3     1     9 1   
     4     1    10 1   
     5     2     4 1   
     6     2     8 1   
     7     2    11 1   
     8     2    12 1   
     9     3     8 1   
    10     3    13 1   
    11     3    14 1   
    12     5     8 1   
    13     5    15 1   
    14     5    16 1   
    15     5    17 1   
    16     6     8 1   
    17     6    18 1   
    18     6    19 1   
    19     6    20 1   
@<TRIPOS>SUBSTRUCTURE
     1 A1H         1 TEMP              0 ****  ****    0 ROOT
