@<TRIPOS>MOLECULE
A1H
   42    44     1     0     0
SMALL
abcg2


@<TRIPOS>ATOM
      1 C3          23.5220    18.0220    -6.2900 c6         1 A1H      -0.159400
      2 O3          30.2360    21.2970   -11.9120 os         1 A1H      -0.339100
      3 C2          23.3570    16.5580    -6.5810 c          1 A1H       0.584000
      4 C1          24.3180    16.8680    -8.8500 c          1 A1H       0.578000
      5 C6          24.7560    19.1800    -9.7890 c5         1 A1H      -0.158700
      6 C5          24.5880    18.3370    -8.5350 c5         1 A1H       0.054000
      7 C4          23.5820    18.8790    -7.5420 c6         1 A1H      -0.070400
      8 O2          28.7680    22.2800   -13.8950 os         1 A1H      -0.319100
      9 O6          22.9210    15.7600    -5.7860 o          1 A1H      -0.512000
     10 N1          23.7550    16.1320    -7.8370 ns         1 A1H      -0.474500
     11 O1          24.6200    16.3540    -9.9000 o          1 A1H      -0.504000
     12 O5          25.9010    18.3210    -7.9320 os         1 A1H      -0.275000
     13 N2          26.8110    18.9530    -8.7370 n2         1 A1H      -0.240700
     14 C7          26.2350    19.4400    -9.7650 ce         1 A1H       0.386900
     15 C8          26.9180    20.1920   -10.8140 ca         1 A1H      -0.175900
     16 C15         28.3110    20.3860   -10.8580 ca         1 A1H       0.165100
     17 O4          29.1250    19.8640    -9.9120 os         1 A1H      -0.346100
     18 C16         29.4120    20.7350    -8.8250 c3         1 A1H       0.159900
     19 C13         28.8950    21.0950   -11.9000 ca         1 A1H       0.035100
     20 C14         30.9710    20.2840   -12.5880 c3         1 A1H       0.148900
     21 C11         28.1070    21.6200   -12.9370 ca         1 A1H       0.153100
     22 C12         28.0300    22.8310   -14.9700 c3         1 A1H       0.143900
     23 C10         26.7300    21.4330   -12.9000 ca         1 A1H      -0.209000
     24 C9          26.1600    20.7250   -11.8550 ca         1 A1H      -0.048000
     25 H1          22.7020    18.3290    -5.6420 hc         1 A1H       0.089200
     26 H2          24.4370    18.1330    -5.7000 hc         1 A1H       0.089200
     27 H3          24.1890    20.1130    -9.7320 hc         1 A1H       0.087200
     28 H4          24.4470    18.6650   -10.6980 hc         1 A1H       0.087200
     29 H5          23.8430    19.9070    -7.2860 hc         1 A1H       0.064700
     30 H6          22.6030    18.9110    -8.0270 hc         1 A1H       0.064700
     31 H7          23.6390    15.1410    -8.0230 hn         1 A1H       0.331500
     32 H10         30.0230    20.1730    -8.1210 h1         1 A1H       0.041033
     33 H11         29.9700    21.6140    -9.1550 h1         1 A1H       0.041033
     34 H12         28.5030    21.0600    -8.3160 h1         1 A1H       0.041033
     35 H13         32.0220    20.5600   -12.5320 h1         1 A1H       0.039033
     36 H14         30.8390    19.3080   -12.1170 h1         1 A1H       0.039033
     37 H15         30.6840    20.2090   -13.6400 h1         1 A1H       0.039033
     38 H16         28.7550    23.3100   -15.6230 h1         1 A1H       0.044367
     39 H17         27.5000    22.0610   -15.5350 h1         1 A1H       0.044367
     40 H18         27.3120    23.5800   -14.6290 h1         1 A1H       0.044367
     41 H19         26.0870    21.8230   -13.6770 ha         1 A1H       0.124000
     42 H20         25.0870    20.5950   -11.8630 ha         1 A1H       0.113000
@<TRIPOS>BOND
     1     1     3 1   
     2     1     7 1   
     3     1    25 1   
     4     1    26 1   
     5     2    19 1   
     6     2    20 1   
     7     3     9 2   
     8     3    10 1   
     9     4     6 1   
    10     4    10 1   
    11     4    11 2   
    12     5     6 1   
    13     5    14 1   
    14     5    27 1   
    15     5    28 1   
    16     6     7 1   
    17     6    12 1   
    18     7    29 1   
    19     7    30 1   
    20     8    21 1   
    21     8    22 1   
    22    10    31 1   
    23    12    13 1   
    24    13    14 2   
    25    14    15 1   
    26    15    16 ar  
    27    15    24 ar  
    28    16    17 1   
    29    16    19 ar  
    30    17    18 1   
    31    18    32 1   
    32    18    33 1   
    33    18    34 1   
    34    19    21 ar  
    35    20    35 1   
    36    20    36 1   
    37    20    37 1   
    38    21    23 ar  
    39    22    38 1   
    40    22    39 1   
    41    22    40 1   
    42    23    24 ar  
    43    23    41 1   
    44    24    42 1   
@<TRIPOS>SUBSTRUCTURE
     1 A1H         1 TEMP              0 ****  ****    0 ROOT
