@<TRIPOS>MOLECULE
A1H
   64    67     1     0     0
SMALL
abcg2


@<TRIPOS>ATOM
      1 C4         263.5620   -18.6760   153.4800 ca         1 A1H      -0.097000
      2 C5         262.3070   -19.1630   153.1460 ca         1 A1H      -0.118000
      3 C6         261.5490   -18.5400   152.1620 ca         1 A1H      -0.073500
      4 C7         261.1990   -16.7010   150.4520 c3         1 A1H       0.109300
      5 C8         261.6570   -17.2240   149.0640 c3         1 A1H       0.290000
      6 C10        261.4470   -15.1710   150.5440 c          1 A1H       0.586100
      7 N12        261.0090   -14.5240   151.6370 n          1 A1H      -0.392800
      8 C13        261.2670   -13.0960   151.7730 c6         1 A1H       0.092500
      9 C15        261.4330   -13.3390   154.2990 c6         1 A1H      -0.025000
     10 C17        260.3240   -15.0820   152.7950 c6         1 A1H       0.092500
     11 C21        261.6840   -13.6320   156.7990 c6         1 A1H       0.117000
     12 C22        262.3490   -13.1080   155.5300 c6         1 A1H      -0.013400
     13 C61        265.5440   -10.5920   154.4930 c3         1 A1H       0.147900
     14 O60        264.5160   -11.4930   154.8480 os         1 A1H      -0.349100
     15 C49        264.8260   -12.7860   155.0710 ca         1 A1H       0.149100
     16 C50        266.1260   -13.2770   154.9780 ca         1 A1H      -0.198000
     17 C51        266.3880   -14.6190   155.2220 ca         1 A1H      -0.067000
     18 C52        265.3580   -15.4760   155.5600 ca         1 A1H      -0.150000
     19 C53        264.0630   -14.9790   155.6500 ca         1 A1H      -0.075000
     20 C47        263.7600   -13.6430   155.4100 ca         1 A1H      -0.111300
     21 N20        260.3070   -13.2000   156.9090 ns         1 A1H      -0.510900
     22 C19        259.5140   -12.7540   155.9230 c          1 A1H       0.566000
     23 O23        258.3320   -12.4930   156.1090 o          1 A1H      -0.574000
     24 C18        260.1610   -12.5290   154.5760 c6         1 A1H      -0.164400
     25 C16        261.1040   -14.8210   154.0790 c6         1 A1H      -0.090400
     26 C14        262.0960   -12.8190   153.0190 c6         1 A1H      -0.090400
     27 O11        262.0520   -14.6170   149.6390 o          1 A1H      -0.587100
     28 F44        262.9690   -17.1090   148.8650 f          1 A1H      -0.106000
     29 F45        261.3660   -18.5280   148.9720 f          1 A1H      -0.106000
     30 F43        261.0390   -16.6230   148.0440 f          1 A1H      -0.106000
     31 O9         259.8680   -17.0650   150.6420 os         1 A1H      -0.449000
     32 C40        258.8380   -16.3900   149.9360 c3         1 A1H       0.143900
     33 C1         262.0370   -17.4110   151.5120 ca         1 A1H      -0.108300
     34 C2         263.3050   -16.9350   151.8400 ca         1 A1H      -0.073500
     35 C3         264.0610   -17.5630   152.8180 ca         1 A1H      -0.118000
     36 H1         264.1490   -19.1590   154.2500 ha         1 A1H       0.113000
     37 H2         261.9090   -20.0330   153.6520 ha         1 A1H       0.118000
     38 H3         260.5710   -18.9340   151.9260 ha         1 A1H       0.131500
     39 H4         261.7910   -12.7380   150.8920 h1         1 A1H       0.062450
     40 H5         260.3090   -12.5690   151.8090 h1         1 A1H       0.062450
     41 H6         259.3270   -14.6340   152.8470 h1         1 A1H       0.062450
     42 H7         260.1720   -16.1480   152.6890 h1         1 A1H       0.062450
     43 H8         261.7220   -14.7230   156.8490 h1         1 A1H       0.041700
     44 H9         262.2340   -13.2620   157.6660 h1         1 A1H       0.041700
     45 H10        262.4160   -12.0220   155.6420 hc         1 A1H       0.077700
     46 H11        265.0670    -9.6250   154.3480 h1         1 A1H       0.043033
     47 H12        266.2970   -10.4970   155.2790 h1         1 A1H       0.043033
     48 H13        266.0400   -10.8820   153.5630 h1         1 A1H       0.043033
     49 H14        266.9490   -12.6240   154.7200 ha         1 A1H       0.120000
     50 H15        267.4050   -14.9820   155.1470 ha         1 A1H       0.115000
     51 H16        265.5490   -16.5230   155.7540 ha         1 A1H       0.117000
     52 H17        263.2720   -15.6670   155.9180 ha         1 A1H       0.114000
     53 H18        259.8610   -13.3480   157.8030 hn         1 A1H       0.315500
     54 H19        260.3970   -11.4600   154.5160 hc         1 A1H       0.073200
     55 H20        259.3900   -12.7000   153.8250 hc         1 A1H       0.073200
     56 H21        260.5180   -15.2300   154.9070 hc         1 A1H       0.058200
     57 H22        262.0290   -15.4000   154.0340 hc         1 A1H       0.058200
     58 H23        263.0720   -13.2960   152.8890 hc         1 A1H       0.058200
     59 H24        262.2730   -11.7430   153.0940 hc         1 A1H       0.058200
     60 H25        257.9370   -16.4970   150.5360 h1         1 A1H       0.047700
     61 H26        259.0330   -15.3230   149.8080 h1         1 A1H       0.047700
     62 H27        258.6550   -16.8330   148.9560 h1         1 A1H       0.047700
     63 H28        263.7160   -16.0620   151.3480 ha         1 A1H       0.131500
     64 H29        265.0390   -17.1730   153.0680 ha         1 A1H       0.118000
@<TRIPOS>BOND
     1     1     2 ar  
     2     1    35 ar  
     3     1    36 1   
     4     2     3 ar  
     5     2    37 1   
     6     3    33 ar  
     7     3    38 1   
     8     4     5 1   
     9     4     6 1   
    10     4    31 1   
    11     4    33 1   
    12     5    28 1   
    13     5    29 1   
    14     5    30 1   
    15     6     7 1   
    16     6    27 2   
    17     7     8 1   
    18     7    10 1   
    19     8    26 1   
    20     8    39 1   
    21     8    40 1   
    22     9    12 1   
    23     9    24 1   
    24     9    25 1   
    25     9    26 1   
    26    10    25 1   
    27    10    41 1   
    28    10    42 1   
    29    11    12 1   
    30    11    21 1   
    31    11    43 1   
    32    11    44 1   
    33    12    20 1   
    34    12    45 1   
    35    13    14 1   
    36    13    46 1   
    37    13    47 1   
    38    13    48 1   
    39    14    15 1   
    40    15    16 ar  
    41    15    20 ar  
    42    16    17 ar  
    43    16    49 1   
    44    17    18 ar  
    45    17    50 1   
    46    18    19 ar  
    47    18    51 1   
    48    19    20 ar  
    49    19    52 1   
    50    21    22 1   
    51    21    53 1   
    52    22    23 2   
    53    22    24 1   
    54    24    54 1   
    55    24    55 1   
    56    25    56 1   
    57    25    57 1   
    58    26    58 1   
    59    26    59 1   
    60    31    32 1   
    61    32    60 1   
    62    32    61 1   
    63    32    62 1   
    64    33    34 ar  
    65    34    35 ar  
    66    34    63 1   
    67    35    64 1   
@<TRIPOS>SUBSTRUCTURE
     1 A1H         1 TEMP              0 ****  ****    0 ROOT
