@<TRIPOS>MOLECULE
A1H
   42    44     1     0     0
SMALL
No Charge or Current Charge


@<TRIPOS>ATOM
      1 C3          23.2010    17.6240    -6.3960 c6         1 A1H      -0.159400
      2 O3          30.1830    20.9800   -12.1620 os         1 A1H      -0.339100
      3 C2          23.5800    16.2250    -6.8710 c          1 A1H       0.584000
      4 C1          25.0390    17.1070    -8.6850 c          1 A1H       0.578000
      5 C6          24.5810    19.4590    -9.6030 c5         1 A1H      -0.158700
      6 C5          24.5780    18.5770    -8.3150 c5         1 A1H       0.054000
      7 C4          23.2370    18.6580    -7.5390 c6         1 A1H      -0.070400
      8 O2          28.6970    22.2190   -14.0900 os         1 A1H      -0.319100
      9 O6          23.1380    15.2210    -6.3380 o          1 A1H      -0.512000
     10 N1          24.3640    16.1340    -7.9870 ns         1 A1H      -0.474500
     11 O1          25.8340    16.7930    -9.5590 o          1 A1H      -0.504000
     12 O5          25.6160    19.1880    -7.5110 os         1 A1H      -0.275000
     13 N2          26.4930    19.8770    -8.3720 n2         1 A1H      -0.240700
     14 C7          26.0180    19.9430    -9.5730 ce         1 A1H       0.386900
     15 C8          26.7530    20.4960   -10.7580 ca         1 A1H      -0.175900
     16 C15         28.1680    20.4870   -10.8540 ca         1 A1H       0.165100
     17 O4          28.9070    19.9050    -9.8450 os         1 A1H      -0.346100
     18 C16         29.8250    20.7000    -9.0740 c3         1 A1H       0.159900
     19 C13         28.8100    21.0450   -11.9940 ca         1 A1H       0.035100
     20 C14         30.8310    19.7030   -12.3050 c3         1 A1H       0.148900
     21 C11         28.0420    21.6710   -13.0000 ca         1 A1H       0.153100
     22 C12         27.9980    22.8680   -15.1670 c3         1 A1H       0.143900
     23 C10         26.6390    21.7050   -12.8830 ca         1 A1H      -0.209000
     24 C9          26.0050    21.1190   -11.7780 ca         1 A1H      -0.048000
     25 H1          22.2430    17.5950    -5.8600 hc         1 A1H       0.089200
     26 H2          23.9700    17.9130    -5.6670 hc         1 A1H       0.089200
     27 H3          23.8900    20.3070    -9.5240 hc         1 A1H       0.087200
     28 H4          24.3380    18.9070   -10.5180 hc         1 A1H       0.087200
     29 H5          23.0820    19.6720    -7.1430 hc         1 A1H       0.064700
     30 H6          22.4040    18.4620    -8.2290 hc         1 A1H       0.064700
     31 H7          24.5780    15.1900    -8.2720 hn         1 A1H       0.331500
     32 H10         30.2890    20.0890    -8.2900 h1         1 A1H       0.041033
     33 H11         30.6260    21.1130    -9.6980 h1         1 A1H       0.041033
     34 H12         29.3000    21.5330    -8.5900 h1         1 A1H       0.041033
     35 H13         31.9070    19.8400   -12.4690 h1         1 A1H       0.039033
     36 H14         30.7010    19.0830   -11.4110 h1         1 A1H       0.039033
     37 H15         30.4210    19.1590   -13.1650 h1         1 A1H       0.039033
     38 H16         28.7100    23.2280   -15.9200 h1         1 A1H       0.044367
     39 H17         27.3060    22.1710   -15.6590 h1         1 A1H       0.044367
     40 H18         27.4280    23.7300   -14.7980 h1         1 A1H       0.044367
     41 H19         26.0200    22.1760   -13.6410 ha         1 A1H       0.124000
     42 H20         24.9200    21.1670   -11.7140 ha         1 A1H       0.113000
@<TRIPOS>BOND
     1     1     3 1   
     2     1     7 1   
     3     1    25 1   
     4     1    26 1   
     5     2    19 1   
     6     2    20 1   
     7     3     9 2   
     8     3    10 1   
     9     4     6 1   
    10     4    10 1   
    11     4    11 2   
    12     5     6 1   
    13     5    14 1   
    14     5    27 1   
    15     5    28 1   
    16     6     7 1   
    17     6    12 1   
    18     7    29 1   
    19     7    30 1   
    20     8    21 1   
    21     8    22 1   
    22    10    31 1   
    23    12    13 1   
    24    13    14 2   
    25    14    15 1   
    26    15    16 ar  
    27    15    24 ar  
    28    16    17 1   
    29    16    19 ar  
    30    17    18 1   
    31    18    32 1   
    32    18    33 1   
    33    18    34 1   
    34    19    21 ar  
    35    20    35 1   
    36    20    36 1   
    37    20    37 1   
    38    21    23 ar  
    39    22    38 1   
    40    22    39 1   
    41    22    40 1   
    42    23    24 ar  
    43    23    41 1   
    44    24    42 1   
@<TRIPOS>SUBSTRUCTURE
     1 A1H         1 TEMP              0 ****  ****    0 ROOT
