@<TRIPOS>MOLECULE
A1H
   34    36     1     0     0
SMALL
abcg2


@<TRIPOS>ATOM
      1 C5          25.1600    18.4360    -9.0070 c5         1 A1H      -0.164700
      2 C7          27.1560    19.5660   -10.2300 ca         1 A1H      -0.162900
      3 C8          26.2770    19.9580   -11.2410 ca         1 A1H      -0.060000
      4 C10         28.0540    20.9390   -12.4960 ca         1 A1H      -0.050000
      5 C13         30.7370    19.7460    -9.5230 c3         1 A1H       0.147900
      6 N2          27.2480    18.5790    -8.0140 n2         1 A1H      -0.219700
      7 C3          24.0540    18.0040    -6.7330 c6         1 A1H      -0.069400
      8 C9          26.7080    20.6420   -12.3660 ca         1 A1H      -0.157000
      9 C11         28.9580    20.5580   -11.5150 ca         1 A1H      -0.212000
     10 C12         28.5260    19.8750   -10.3790 ca         1 A1H       0.188100
     11 C14         25.1570    16.1500    -8.0050 c          1 A1H       0.563000
     12 N1          23.9190    15.5510    -8.0180 ns         1 A1H      -0.485500
     13 C4          25.1690    17.6440    -7.6950 c5         1 A1H       0.057000
     14 C2          22.7160    17.5590    -7.3000 c6         1 A1H      -0.166400
     15 C1          22.6940    16.1120    -7.7070 c          1 A1H       0.579000
     16 O3          26.4330    17.9470    -7.1120 os         1 A1H      -0.257000
     17 C6          26.6020    18.8590    -9.0770 ce         1 A1H       0.373900
     18 O2          29.3530    19.4800    -9.4070 os         1 A1H      -0.312100
     19 H1          24.5010    19.3080    -8.9570 hc         1 A1H       0.079200
     20 H2          24.8510    17.8500    -9.8740 hc         1 A1H       0.079200
     21 H3          25.2240    19.7290   -11.1490 ha         1 A1H       0.109000
     22 H4          28.4160    21.4710   -13.3660 ha         1 A1H       0.115000
     23 H5          31.2020    19.3300    -8.6330 h1         1 A1H       0.044700
     24 H6          31.1720    19.2680   -10.4050 h1         1 A1H       0.044700
     25 H7          30.9450    20.8180    -9.5620 h1         1 A1H       0.044700
     26 H9          24.2300    17.5230    -5.7670 hc         1 A1H       0.074700
     27 H10         24.0500    19.0810    -6.5670 hc         1 A1H       0.074700
     28 H11         25.9990    20.9330   -13.1290 ha         1 A1H       0.120000
     29 H12         30.0030    20.8020   -11.6460 ha         1 A1H       0.122000
     30 H13         23.9040    14.5720    -8.2880 hn         1 A1H       0.331500
     31 H14         22.4570    18.1470    -8.1870 hc         1 A1H       0.080700
     32 H15         21.9120    17.7200    -6.5830 hc         1 A1H       0.080700
     33 O4          26.1580    15.5270    -8.2590 o          1 A1H      -0.479000
     34 O1          21.6860    15.4520    -7.7880 o          1 A1H      -0.511000
@<TRIPOS>BOND
     1     1    13 1   
     2     1    17 1   
     3     1    19 1   
     4     1    20 1   
     5     2     3 ar  
     6     2    10 ar  
     7     2    17 1   
     8     3     8 ar  
     9     3    21 1   
    10     4     8 ar  
    11     4     9 ar  
    12     4    22 1   
    13     5    18 1   
    14     5    23 1   
    15     5    24 1   
    16     5    25 1   
    17     6    16 1   
    18     6    17 2   
    19     7    13 1   
    20     7    14 1   
    21     7    26 1   
    22     7    27 1   
    23     8    28 1   
    24     9    10 ar  
    25     9    29 1   
    26    10    18 1   
    27    11    12 1   
    28    11    13 1   
    29    11    33 2   
    30    12    15 1   
    31    12    30 1   
    32    13    16 1   
    33    14    15 1   
    34    14    31 1   
    35    14    32 1   
    36    15    34 2   
@<TRIPOS>SUBSTRUCTURE
     1 A1H         1 TEMP              0 ****  ****    0 ROOT
