@<TRIPOS>MOLECULE
A1H
   64    67     1     0     0
SMALL
No Charge or Current Charge


@<TRIPOS>ATOM
      1 C4         263.3020   -18.8640   153.6620 ca         1 A1H      -0.097000
      2 C5         262.0490   -19.3010   153.2080 ca         1 A1H      -0.118000
      3 C6         261.3990   -18.6220   152.1620 ca         1 A1H      -0.073500
      4 C7         261.2800   -16.7210   150.4100 c3         1 A1H       0.109300
      5 C8         261.8290   -17.2690   149.0360 c3         1 A1H       0.290000
      6 C10        261.5480   -15.1720   150.5740 c          1 A1H       0.586100
      7 N12        260.9380   -14.4460   151.6410 n          1 A1H      -0.392800
      8 C13        261.1620   -12.9860   151.8190 c6         1 A1H       0.092500
      9 C15        261.4060   -13.3140   154.3790 c6         1 A1H      -0.025000
     10 C17        260.2790   -15.0660   152.8260 c6         1 A1H       0.092500
     11 C21        261.7530   -13.6340   156.9270 c6         1 A1H       0.117000
     12 C22        262.3770   -13.1080   155.6030 c6         1 A1H      -0.013400
     13 C61        265.5170   -10.4430   154.2870 c3         1 A1H       0.147900
     14 O60        264.5490   -11.4030   154.7460 os         1 A1H      -0.349100
     15 C49        264.8600   -12.7320   154.9710 ca         1 A1H       0.149100
     16 C50        266.1770   -13.2150   154.7910 ca         1 A1H      -0.198000
     17 C51        266.4800   -14.5630   155.0280 ca         1 A1H      -0.067000
     18 C52        265.4710   -15.4410   155.4430 ca         1 A1H      -0.150000
     19 C53        264.1590   -14.9770   155.6170 ca         1 A1H      -0.075000
     20 C47        263.8310   -13.6200   155.3870 ca         1 A1H      -0.111300
     21 N20        260.3310   -13.2990   157.0860 ns         1 A1H      -0.510900
     22 C19        259.4990   -12.7970   156.1170 c          1 A1H       0.566000
     23 O23        258.3200   -12.6040   156.3620 o          1 A1H      -0.574000
     24 C18        260.0820   -12.5460   154.7180 c6         1 A1H      -0.164400
     25 C16        261.1080   -14.8290   154.1140 c6         1 A1H      -0.090400
     26 C14        262.0310   -12.7170   153.0730 c6         1 A1H      -0.090400
     27 O11        262.2790   -14.5690   149.7930 o          1 A1H      -0.587100
     28 F44        263.1820   -17.2340   148.9880 f          1 A1H      -0.106000
     29 F45        261.4610   -18.5600   148.8520 f          1 A1H      -0.106000
     30 F43        261.3760   -16.5670   147.9690 f          1 A1H      -0.106000
     31 O9         259.8420   -17.0150   150.5110 os         1 A1H      -0.449000
     32 C40        258.9310   -16.3550   149.6030 c3         1 A1H       0.143900
     33 C1         261.9900   -17.4850   151.5600 ca         1 A1H      -0.108300
     34 C2         263.2610   -17.0660   152.0230 ca         1 A1H      -0.073500
     35 C3         263.9090   -17.7500   153.0640 ca         1 A1H      -0.118000
     36 H1         263.8050   -19.3920   154.4700 ha         1 A1H       0.113000
     37 H2         261.5790   -20.1700   153.6630 ha         1 A1H       0.118000
     38 H3         260.4330   -18.9900   151.8240 ha         1 A1H       0.131500
     39 H4         261.6540   -12.5490   150.9390 h1         1 A1H       0.062450
     40 H5         260.1910   -12.4800   151.9130 h1         1 A1H       0.062450
     41 H6         259.2740   -14.6360   152.9400 h1         1 A1H       0.062450
     42 H7         260.1330   -16.1440   152.7070 h1         1 A1H       0.062450
     43 H8         261.8250   -14.7270   156.9810 h1         1 A1H       0.041700
     44 H9         262.3100   -13.2270   157.7840 h1         1 A1H       0.041700
     45 H10        262.4390   -12.0230   155.7580 hc         1 A1H       0.077700
     46 H11        265.0480    -9.4580   154.1690 h1         1 A1H       0.043033
     47 H12        266.3390   -10.3430   155.0070 h1         1 A1H       0.043033
     48 H13        265.9310   -10.7410   153.3150 h1         1 A1H       0.043033
     49 H14        266.9810   -12.5580   154.4720 ha         1 A1H       0.120000
     50 H15        267.4960   -14.9270   154.8900 ha         1 A1H       0.115000
     51 H16        265.7060   -16.4870   155.6280 ha         1 A1H       0.117000
     52 H17        263.4010   -15.6910   155.9280 ha         1 A1H       0.114000
     53 H18        259.9010   -13.4630   157.9890 hn         1 A1H       0.315500
     54 H19        260.3140   -11.4730   154.7140 hc         1 A1H       0.073200
     55 H20        259.2830   -12.6640   153.9770 hc         1 A1H       0.073200
     56 H21        260.5830   -15.2830   154.9650 hc         1 A1H       0.058200
     57 H22        262.0480   -15.3810   154.0060 hc         1 A1H       0.058200
     58 H23        263.0200   -13.1550   152.8910 hc         1 A1H       0.058200
     59 H24        262.1910   -11.6360   153.1820 hc         1 A1H       0.058200
     60 H25        257.8950   -16.5350   149.9180 h1         1 A1H       0.047700
     61 H26        259.0900   -15.2700   149.5870 h1         1 A1H       0.047700
     62 H27        259.0300   -16.7440   148.5820 h1         1 A1H       0.047700
     63 H28        263.7610   -16.2090   151.5770 ha         1 A1H       0.131500
     64 H29        264.8860   -17.4170   153.4040 ha         1 A1H       0.118000
@<TRIPOS>BOND
     1     1     2 ar  
     2     1    35 ar  
     3     1    36 1   
     4     2     3 ar  
     5     2    37 1   
     6     3    33 ar  
     7     3    38 1   
     8     4     5 1   
     9     4     6 1   
    10     4    31 1   
    11     4    33 1   
    12     5    28 1   
    13     5    29 1   
    14     5    30 1   
    15     6     7 1   
    16     6    27 2   
    17     7     8 1   
    18     7    10 1   
    19     8    26 1   
    20     8    39 1   
    21     8    40 1   
    22     9    12 1   
    23     9    24 1   
    24     9    25 1   
    25     9    26 1   
    26    10    25 1   
    27    10    41 1   
    28    10    42 1   
    29    11    12 1   
    30    11    21 1   
    31    11    43 1   
    32    11    44 1   
    33    12    20 1   
    34    12    45 1   
    35    13    14 1   
    36    13    46 1   
    37    13    47 1   
    38    13    48 1   
    39    14    15 1   
    40    15    16 ar  
    41    15    20 ar  
    42    16    17 ar  
    43    16    49 1   
    44    17    18 ar  
    45    17    50 1   
    46    18    19 ar  
    47    18    51 1   
    48    19    20 ar  
    49    19    52 1   
    50    21    22 1   
    51    21    53 1   
    52    22    23 2   
    53    22    24 1   
    54    24    54 1   
    55    24    55 1   
    56    25    56 1   
    57    25    57 1   
    58    26    58 1   
    59    26    59 1   
    60    31    32 1   
    61    32    60 1   
    62    32    61 1   
    63    32    62 1   
    64    33    34 ar  
    65    34    35 ar  
    66    34    63 1   
    67    35    64 1   
@<TRIPOS>SUBSTRUCTURE
     1 A1H         1 TEMP              0 ****  ****    0 ROOT
