@<TRIPOS>MOLECULE
A1H
   32    34     1     0     0
SMALL
abcg2


@<TRIPOS>ATOM
      1 O5          26.0290    16.9740    -9.2800 o          1 A1H      -0.487000
      2 C13         25.1360    17.4380    -8.6150 c          1 A1H       0.566000
      3 N1          23.9780    16.7370    -8.3770 ns         1 A1H      -0.483500
      4 C4          25.1990    18.8410    -8.0230 c5         1 A1H       0.057000
      5 C3          24.4140    18.9240    -6.7280 c6         1 A1H      -0.073400
      6 C2          22.9830    18.4670    -6.9580 c6         1 A1H      -0.165400
      7 C1          22.8910    17.1170    -7.6100 c          1 A1H       0.578000
      8 O1          21.9340    16.3870    -7.5120 o          1 A1H      -0.507000
      9 O4          26.5780    19.1230    -7.7650 os         1 A1H      -0.243000
     10 N3          27.0530    20.0580    -8.6410 n2         1 A1H      -0.215700
     11 C6          26.1110    20.4930    -9.3660 ce         1 A1H       0.347900
     12 C5          24.7830    19.8720    -9.0850 c5         1 A1H      -0.149700
     13 C7          26.3510    21.5240   -10.3900 ca         1 A1H      -0.056900
     14 C12         26.6330    22.8520   -10.0820 ca         1 A1H      -0.144200
     15 N2          26.5970    23.2990    -8.6970 no         1 A1H       0.696200
     16 O3          25.7640    22.8100    -7.9710 o          1 A1H      -0.390500
     17 O2          27.3870    24.1460    -8.3600 o          1 A1H      -0.390500
     18 C11         26.9260    23.7900   -11.0580 ca         1 A1H      -0.054000
     19 C10         26.9040    23.4030   -12.3870 ca         1 A1H      -0.104000
     20 C9          26.6130    22.0880   -12.7230 ca         1 A1H      -0.072000
     21 C8          26.3460    21.1570   -11.7300 ca         1 A1H      -0.094000
     22 H1          23.9160    15.8240    -8.8170 hn         1 A1H       0.332500
     23 H2          24.8920    18.3000    -5.9690 hc         1 A1H       0.080700
     24 H3          24.4240    19.9520    -6.3630 hc         1 A1H       0.080700
     25 H4          22.4510    19.1750    -7.6020 hc         1 A1H       0.083200
     26 H5          22.4280    18.4310    -6.0220 hc         1 A1H       0.083200
     27 H6          24.0870    20.6210    -8.6970 hc         1 A1H       0.088200
     28 H7          24.3280    19.4420    -9.9790 hc         1 A1H       0.088200
     29 H8          27.1500    24.8130   -10.7910 ha         1 A1H       0.151000
     30 H9          27.1150    24.1310   -13.1590 ha         1 A1H       0.132000
     31 H10         26.6030    21.7820   -13.7600 ha         1 A1H       0.130000
     32 H11         26.1430    20.1270   -11.9950 ha         1 A1H       0.136000
@<TRIPOS>BOND
     1     1     2 2   
     2     2     3 1   
     3     2     4 1   
     4     3     7 1   
     5     3    22 1   
     6     4     5 1   
     7     4     9 1   
     8     4    12 1   
     9     5     6 1   
    10     5    23 1   
    11     5    24 1   
    12     6     7 1   
    13     6    25 1   
    14     6    26 1   
    15     7     8 2   
    16     9    10 1   
    17    10    11 2   
    18    11    12 1   
    19    11    13 1   
    20    12    27 1   
    21    12    28 1   
    22    13    14 ar  
    23    13    21 ar  
    24    14    15 1   
    25    14    18 ar  
    26    15    16 1   
    27    15    17 1   
    28    18    19 ar  
    29    18    29 1   
    30    19    20 ar  
    31    19    30 1   
    32    20    21 ar  
    33    20    31 1   
    34    21    32 1   
@<TRIPOS>SUBSTRUCTURE
     1 A1H         1 TEMP              0 ****  ****    0 ROOT
