@<TRIPOS>MOLECULE
A1H
   30    32     1     0     0
SMALL
No Charge or Current Charge


@<TRIPOS>ATOM
      1 C12         21.3960    18.1000    29.9650 ca         1 A1H       0.153000
      2 O1          22.3800    11.5140    25.1830 o          1 A1H      -0.508000
      3 C13         22.6100    14.8850    26.3190 c          1 A1H       0.563000
      4 O2          24.4330    15.9150    27.6410 os         1 A1H      -0.249000
      5 O3          22.1210    15.9360    25.9340 o          1 A1H      -0.478000
      6 C7          21.8420    16.7600    30.1030 ca         1 A1H      -0.109900
      7 C8          21.3920    16.0080    31.2120 ca         1 A1H      -0.092000
      8 C9          20.5100    16.5670    32.1520 ca         1 A1H      -0.113000
      9 C10         20.0690    17.8890    32.0030 ca         1 A1H      -0.084000
     10 C11         20.5110    18.6510    30.9100 ca         1 A1H      -0.111000
     11 N1          22.3570    13.7150    25.6410 ns         1 A1H      -0.484500
     12 C1          22.7750    12.4330    25.8780 c          1 A1H       0.579000
     13 N2          23.7910    16.7450    28.5820 n2         1 A1H      -0.216700
     14 C2          23.8230    12.2240    26.9720 c6         1 A1H      -0.167400
     15 C3          24.6190    13.5080    27.2860 c6         1 A1H      -0.069400
     16 C4          23.6540    14.7020    27.4910 c5         1 A1H       0.054000
     17 C5          22.8530    14.6460    28.8310 c5         1 A1H      -0.161700
     18 C6          22.8190    16.1240    29.1620 ce         1 A1H       0.359900
     19 Cl1         21.8500    19.1210    28.5980 cl         1 A1H      -0.162000
     20 H1          21.7320    14.9850    31.3560 ha         1 A1H       0.111000
     21 H2          20.1730    15.9740    33.0000 ha         1 A1H       0.121000
     22 H3          19.3850    18.3230    32.7300 ha         1 A1H       0.122000
     23 H4          20.1640    19.6740    30.7900 ha         1 A1H       0.134000
     24 H5          21.7130    13.8080    24.8700 hn         1 A1H       0.332500
     25 H7          23.2650    11.9410    27.8740 hc         1 A1H       0.081200
     26 H8          24.4610    11.3670    26.7180 hc         1 A1H       0.081200
     27 H9          25.2530    13.3620    28.1720 hc         1 A1H       0.075700
     28 H10         25.2970    13.7290    26.4490 hc         1 A1H       0.075700
     29 H11         21.8510    14.2130    28.7310 hc         1 A1H       0.081200
     30 H12         23.3870    14.0900    29.6100 hc         1 A1H       0.081200
@<TRIPOS>BOND
     1     1     6 ar  
     2     1    10 ar  
     3     1    19 1   
     4     2    12 2   
     5     3     5 2   
     6     3    11 1   
     7     3    16 1   
     8     4    13 1   
     9     4    16 1   
    10     6     7 ar  
    11     6    18 1   
    12     7     8 ar  
    13     7    20 1   
    14     8     9 ar  
    15     8    21 1   
    16     9    10 ar  
    17     9    22 1   
    18    10    23 1   
    19    11    12 1   
    20    11    24 1   
    21    12    14 1   
    22    13    18 2   
    23    14    15 1   
    24    14    25 1   
    25    14    26 1   
    26    15    16 1   
    27    15    27 1   
    28    15    28 1   
    29    16    17 1   
    30    17    18 1   
    31    17    29 1   
    32    17    30 1   
@<TRIPOS>SUBSTRUCTURE
     1 A1H         1 TEMP              0 ****  ****    0 ROOT
