@<TRIPOS>MOLECULE
A1H
   30    32     1     0     0
SMALL
abcg2


@<TRIPOS>ATOM
      1 C12         21.6740    18.2180    30.2400 ca         1 A1H       0.153000
      2 O1          22.6520    11.1640    25.5630 o          1 A1H      -0.508000
      3 C13         22.6120    14.6670    26.1090 c          1 A1H       0.563000
      4 O2          24.0960    16.0620    27.3400 os         1 A1H      -0.249000
      5 O3          22.0990    15.6270    25.5900 o          1 A1H      -0.478000
      6 C7          21.8430    16.8460    30.0110 ca         1 A1H      -0.109900
      7 C8          21.1750    15.9710    30.8760 ca         1 A1H      -0.092000
      8 C9          20.3940    16.4250    31.9230 ca         1 A1H      -0.113000
      9 C10         20.2500    17.7880    32.1290 ca         1 A1H      -0.084000
     10 C11         20.8880    18.6810    31.2850 ca         1 A1H      -0.111000
     11 N1          22.4010    13.3960    25.6320 ns         1 A1H      -0.484500
     12 C1          22.9550    12.2110    26.0820 c          1 A1H       0.579000
     13 N2          23.4890    16.8930    28.2360 n2         1 A1H      -0.216700
     14 C2          23.9100    12.3260    27.2360 c6         1 A1H      -0.167400
     15 C3          24.5570    13.6960    27.3500 c6         1 A1H      -0.069400
     16 C4          23.4880    14.7710    27.3550 c5         1 A1H       0.054000
     17 C5          22.6000    14.7870    28.6040 c5         1 A1H      -0.161700
     18 C6          22.6450    16.2510    28.9400 ce         1 A1H       0.359900
     19 CL1         22.4010    19.4210    29.2340 cl         1 A1H      -0.162000
     20 H1          21.2740    14.9030    30.7330 ha         1 A1H       0.111000
     21 H2          19.8980    15.7150    32.5710 ha         1 A1H       0.121000
     22 H3          19.6400    18.1620    32.9410 ha         1 A1H       0.122000
     23 H4          20.7740    19.7460    31.4340 ha         1 A1H       0.134000
     24 H5          21.7660    13.3190    24.8440 hn         1 A1H       0.332500
     25 H7          23.3490    12.0860    28.1460 hc         1 A1H       0.081200
     26 H8          24.6620    11.5440    27.1310 hc         1 A1H       0.081200
     27 H9          25.1420    13.7590    28.2680 hc         1 A1H       0.075700
     28 H10         25.2410    13.8600    26.5140 hc         1 A1H       0.075700
     29 H11         21.5850    14.4230    28.4330 hc         1 A1H       0.081200
     30 H12         23.0270    14.1880    29.4130 hc         1 A1H       0.081200
@<TRIPOS>BOND
     1     1     6 ar  
     2     1    10 ar  
     3     1    19 1   
     4     2    12 2   
     5     3     5 2   
     6     3    11 1   
     7     3    16 1   
     8     4    13 1   
     9     4    16 1   
    10     6     7 ar  
    11     6    18 1   
    12     7     8 ar  
    13     7    20 1   
    14     8     9 ar  
    15     8    21 1   
    16     9    10 ar  
    17     9    22 1   
    18    10    23 1   
    19    11    12 1   
    20    11    24 1   
    21    12    14 1   
    22    13    18 2   
    23    14    15 1   
    24    14    25 1   
    25    14    26 1   
    26    15    16 1   
    27    15    27 1   
    28    15    28 1   
    29    16    17 1   
    30    17    18 1   
    31    17    29 1   
    32    17    30 1   
@<TRIPOS>SUBSTRUCTURE
     1 A1H         1 TEMP              0 ****  ****    0 ROOT
