@<TRIPOS>MOLECULE
A1H
   32    34     1     0     0
SMALL
No Charge or Current Charge


@<TRIPOS>ATOM
      1 O5          26.4260    17.5890    -9.2670 o          1 A1H      -0.487000
      2 C13         25.3760    17.7940    -8.6770 c          1 A1H       0.566000
      3 N1          24.3920    16.8320    -8.6620 ns         1 A1H      -0.483500
      4 C4          25.0290    19.0430    -7.7750 c5         1 A1H       0.057000
      5 C3          24.0380    18.7290    -6.6260 c6         1 A1H      -0.073400
      6 C2          22.7920    18.0030    -7.1760 c6         1 A1H      -0.165400
      7 C1          23.1480    16.8320    -8.0920 c          1 A1H       0.578000
      8 O1          22.3930    15.8880    -8.2510 o          1 A1H      -0.507000
      9 O4          26.2480    19.5840    -7.2060 os         1 A1H      -0.243000
     10 N3          26.7440    20.5790    -8.0710 n2         1 A1H      -0.215700
     11 C6          25.8870    20.8570    -8.9960 ce         1 A1H       0.347900
     12 C5          24.5550    20.1890    -8.7260 c5         1 A1H      -0.149700
     13 C7          26.2150    21.6820   -10.2030 ca         1 A1H      -0.056900
     14 C12         26.9480    22.9020   -10.1250 ca         1 A1H      -0.144200
     15 N2          27.3130    23.5200    -8.8140 no         1 A1H       0.696200
     16 O3          26.4220    23.6260    -7.9610 o          1 A1H      -0.390500
     17 O2          28.4170    24.0710    -8.7260 o          1 A1H      -0.390500
     18 C11         27.3050    23.5820   -11.3120 ca         1 A1H      -0.054000
     19 C10         26.9380    23.0680   -12.5660 ca         1 A1H      -0.104000
     20 C9          26.2140    21.8700   -12.6470 ca         1 A1H      -0.072000
     21 C8          25.8620    21.1810   -11.4750 ca         1 A1H      -0.094000
     22 H1          24.6010    16.0100    -9.2080 hn         1 A1H       0.332500
     23 H2          24.5350    18.0860    -5.8850 hc         1 A1H       0.080700
     24 H3          23.7490    19.6480    -6.0980 hc         1 A1H       0.080700
     25 H4          22.2320    18.7130    -7.7980 hc         1 A1H       0.083200
     26 H5          22.1020    17.6670    -6.3910 hc         1 A1H       0.083200
     27 H6          23.8780    20.8890    -8.2240 hc         1 A1H       0.088200
     28 H7          24.0520    19.8340    -9.6320 hc         1 A1H       0.088200
     29 H8          27.8560    24.5200   -11.2650 ha         1 A1H       0.151000
     30 H9          27.2130    23.6000   -13.4740 ha         1 A1H       0.132000
     31 H10         25.9350    21.4690   -13.6190 ha         1 A1H       0.130000
     32 H11         25.3270    20.2380   -11.5640 ha         1 A1H       0.136000
@<TRIPOS>BOND
     1     1     2 2   
     2     2     3 1   
     3     2     4 1   
     4     3     7 1   
     5     3    22 1   
     6     4     5 1   
     7     4     9 1   
     8     4    12 1   
     9     5     6 1   
    10     5    23 1   
    11     5    24 1   
    12     6     7 1   
    13     6    25 1   
    14     6    26 1   
    15     7     8 2   
    16     9    10 1   
    17    10    11 2   
    18    11    12 1   
    19    11    13 1   
    20    12    27 1   
    21    12    28 1   
    22    13    14 ar  
    23    13    21 ar  
    24    14    15 1   
    25    14    18 ar  
    26    15    16 1   
    27    15    17 1   
    28    18    19 ar  
    29    18    29 1   
    30    19    20 ar  
    31    19    30 1   
    32    20    21 ar  
    33    20    31 1   
    34    21    32 1   
@<TRIPOS>SUBSTRUCTURE
     1 A1H         1 TEMP              0 ****  ****    0 ROOT
