@<TRIPOS>MOLECULE
A1H
   34    36     1     0     0
SMALL
No Charge or Current Charge


@<TRIPOS>ATOM
      1 C5          24.9650    18.7780    -8.8900 c5         1 A1H      -0.164700
      2 C7          27.0370    19.7890   -10.2360 ca         1 A1H      -0.162900
      3 C8          26.2080    20.3400   -11.2390 ca         1 A1H      -0.060000
      4 C10         28.1450    20.8720   -12.6050 ca         1 A1H      -0.050000
      5 C13         30.6940    19.2100    -9.5760 c3         1 A1H       0.147900
      6 N2          26.9610    19.2470    -7.8210 n2         1 A1H      -0.219700
      7 C3          23.7960    18.0030    -6.6920 c6         1 A1H      -0.069400
      8 C9          26.7580    20.8730   -12.4150 ca         1 A1H      -0.157000
      9 C11         28.9850    20.3390   -11.6160 ca         1 A1H      -0.212000
     10 C12         28.4430    19.7990   -10.4260 ca         1 A1H       0.188100
     11 C14         25.4730    16.4630    -7.9910 c          1 A1H       0.563000
     12 N1          24.4080    15.5920    -7.9870 ns         1 A1H      -0.485500
     13 C4          25.0640    17.9340    -7.5800 c5         1 A1H       0.057000
     14 C2          22.6440    17.2080    -7.3410 c6         1 A1H      -0.166400
     15 C1          23.0720    15.8110    -7.7910 c          1 A1H       0.579000
     16 O3          26.1630    18.5670    -6.8790 os         1 A1H      -0.257000
     17 C6          26.3950    19.2740    -8.9820 ce         1 A1H       0.373900
     18 O2          29.2610    19.2480    -9.4570 os         1 A1H      -0.312100
     19 H1          24.2730    19.6210    -8.7890 hc         1 A1H       0.079200
     20 H2          24.6640    18.1960    -9.7690 hc         1 A1H       0.079200
     21 H3          25.1280    20.3660   -11.1100 ha         1 A1H       0.109000
     22 H4          28.5700    21.2860   -13.5180 ha         1 A1H       0.115000
     23 H5          31.1350    18.7340    -8.6910 h1         1 A1H       0.044700
     24 H6          30.9980    18.6320   -10.4580 h1         1 A1H       0.044700
     25 H7          31.1060    20.2240    -9.6560 h1         1 A1H       0.044700
     26 H9          24.0210    17.5760    -5.7050 hc         1 A1H       0.074700
     27 H10         23.4970    19.0470    -6.5210 hc         1 A1H       0.074700
     28 H11         26.1050    21.2910   -13.1780 ha         1 A1H       0.120000
     29 H12         30.0560    20.3520   -11.7950 ha         1 A1H       0.122000
     30 H13         24.6450    14.6390    -8.2210 hn         1 A1H       0.331500
     31 H14         22.3370    17.7380    -8.2530 hc         1 A1H       0.080700
     32 H15         21.7510    17.1400    -6.7060 hc         1 A1H       0.080700
     33 O4          26.6040    16.0500    -8.1970 o          1 A1H      -0.479000
     34 O1          22.2720    14.8960    -7.8930 o          1 A1H      -0.511000
@<TRIPOS>BOND
     1     1    13 1   
     2     1    17 1   
     3     1    19 1   
     4     1    20 1   
     5     2     3 ar  
     6     2    10 ar  
     7     2    17 1   
     8     3     8 ar  
     9     3    21 1   
    10     4     8 ar  
    11     4     9 ar  
    12     4    22 1   
    13     5    18 1   
    14     5    23 1   
    15     5    24 1   
    16     5    25 1   
    17     6    16 1   
    18     6    17 2   
    19     7    13 1   
    20     7    14 1   
    21     7    26 1   
    22     7    27 1   
    23     8    28 1   
    24     9    10 ar  
    25     9    29 1   
    26    10    18 1   
    27    11    12 1   
    28    11    13 1   
    29    11    33 2   
    30    12    15 1   
    31    12    30 1   
    32    13    16 1   
    33    14    15 1   
    34    14    31 1   
    35    14    32 1   
    36    15    34 2   
@<TRIPOS>SUBSTRUCTURE
     1 A1H         1 TEMP              0 ****  ****    0 ROOT
