@<TRIPOS>MOLECULE
A1I
   32    33     1     0     0
SMALL
abcg2


@<TRIPOS>ATOM
      1 C10        -14.6770    14.5710     3.3870 cc         1 A1I      -0.243000
      2 C15        -16.1280     9.1800     7.6110 c5         1 A1I      -0.034700
      3 C17        -18.3300     9.3130     8.4230 c2         1 A1I      -0.224200
      4 C02        -16.8770    10.4530     5.5910 c          1 A1I       0.588100
      5 N03        -16.1750    10.3140     4.4600 ns         1 A1I      -0.464900
      6 C04        -15.7900    11.3970     3.5840 c3         1 A1I      -0.036300
      7 C05        -15.4990    10.8160     2.1790 c          1 A1I       0.723000
      8 O06        -15.0140     9.6640     2.1610 o          1 A1I      -0.722500
      9 O07        -15.7480    11.5460     1.2060 o          1 A1I      -0.722500
     10 C08        -14.5480    12.1200     4.1480 c3         1 A1I      -0.100700
     11 C09        -14.1250    13.3180     3.3680 cd         1 A1I       0.296300
     12 N11        -13.9510    15.3070     2.4960 na         1 A1I      -0.312500
     13 C12        -13.0040    14.5010     1.9820 cc         1 A1I       0.368400
     14 N13        -13.0780    13.2940     2.4870 nd         1 A1I      -0.649000
     15 C14        -17.0760     9.1710     6.3780 c5         1 A1I      -0.150700
     16 C16        -17.0510     9.3750     8.7760 c2         1 A1I      -0.224200
     17 C18        -18.5060     9.0650     6.9550 c5         1 A1I      -0.034700
     18 H1         -15.5000    14.9870     3.9450 h4         1 A1I       0.149000
     19 H4         -19.1680     9.4000     9.1040 ha         1 A1I       0.171000
     20 H6         -15.8360     9.4050     4.1790 hn         1 A1I       0.336500
     21 H7         -16.6090    12.1160     3.5180 h1         1 A1I       0.058700
     22 H9         -14.7700    12.4130     5.1770 hc         1 A1I       0.041200
     23 H10        -13.7190    11.4090     4.1950 hc         1 A1I       0.041200
     24 H11        -14.0910    16.2790     2.2700 hn         1 A1I       0.330000
     25 H12        -12.2850    14.8420     1.2540 h5         1 A1I       0.035100
     26 H14        -16.8540     8.3130     5.7420 hc         1 A1I       0.059700
     27 H15        -16.6900     9.5210     9.7860 ha         1 A1I       0.171000
     28 H17        -18.9270     8.0720     6.7780 hc         1 A1I       0.050700
     29 H18        -19.1980     9.7740     6.4940 hc         1 A1I       0.050700
     30 H2         -15.5850     8.2350     7.6960 hc         1 A1I       0.050700
     31 O01        -17.3060    11.5310     5.9890 o          1 A1I      -0.652100
     32 H3         -15.3620     9.9590     7.5500 hc         1 A1I       0.050700
@<TRIPOS>BOND
     1     1    11 2   
     2     1    12 1   
     3     1    18 1   
     4     2    15 1   
     5     2    16 1   
     6     2    30 1   
     7     2    32 1   
     8     3    16 2   
     9     3    17 1   
    10     3    19 1   
    11     4     5 1   
    12     4    15 1   
    13     4    31 2   
    14     5     6 1   
    15     5    20 1   
    16     6     7 1   
    17     6    10 1   
    18     6    21 1   
    19     7     8 1   
    20     7     9 1   
    21    10    11 1   
    22    10    22 1   
    23    10    23 1   
    24    11    14 1   
    25    12    13 1   
    26    12    24 1   
    27    13    14 2   
    28    13    25 1   
    29    15    17 1   
    30    15    26 1   
    31    16    27 1   
    32    17    28 1   
    33    17    29 1   
@<TRIPOS>SUBSTRUCTURE
     1 A1I         1 TEMP              0 ****  ****    0 ROOT
