@<TRIPOS>MOLECULE
A1I
   32    33     1     0     0
SMALL
No Charge or Current Charge


@<TRIPOS>ATOM
      1 C10        -14.6410    14.5840     3.2710 cc         1 A1I      -0.243000
      2 C15        -16.1790     9.0460     7.8340 c5         1 A1I      -0.034700
      3 C17        -18.4850     9.2430     8.2990 c2         1 A1I      -0.224200
      4 C02        -16.7050    10.5270     5.8190 c          1 A1I       0.588100
      5 N03        -16.1340    10.3840     4.5720 ns         1 A1I      -0.464900
      6 C04        -15.7510    11.4950     3.6700 c3         1 A1I      -0.036300
      7 C05        -15.6820    11.0000     2.1900 c          1 A1I       0.723000
      8 O06        -15.1170     9.9380     1.9600 o          1 A1I      -0.722500
      9 O07        -16.3300    11.6070     1.3490 o          1 A1I      -0.722500
     10 C08        -14.4280    12.1600     4.1240 c3         1 A1I      -0.100700
     11 C09        -14.0510    13.3460     3.2770 cd         1 A1I       0.296300
     12 N11        -13.9350    15.3140     2.3360 na         1 A1I      -0.312500
     13 C12        -12.9530    14.5020     1.8210 cc         1 A1I       0.368400
     14 N13        -13.0020    13.3050     2.3820 nd         1 A1I      -0.649000
     15 C14        -16.9150     9.1200     6.4500 c5         1 A1I      -0.150700
     16 C16        -17.2720     9.3090     8.8440 c2         1 A1I      -0.224200
     17 C18        -18.4270     8.9240     6.8220 c5         1 A1I      -0.034700
     18 H1         -15.4760    14.9750     3.8400 h4         1 A1I       0.149000
     19 H4         -19.4090     9.4030     8.8580 ha         1 A1I       0.171000
     20 H6         -15.9480     9.4370     4.2610 hn         1 A1I       0.336500
     21 H7         -16.5460    12.2510     3.7150 h1         1 A1I       0.058700
     22 H9         -14.5250    12.4830     5.1670 hc         1 A1I       0.041200
     23 H10        -13.6250    11.4120     4.1070 hc         1 A1I       0.041200
     24 H11        -14.0950    16.2770     2.0640 hn         1 A1I       0.330000
     25 H12        -12.2530    14.8370     1.0650 h5         1 A1I       0.035100
     26 H14        -16.5640     8.3370     5.7680 hc         1 A1I       0.059700
     27 H15        -17.0960     9.5290     9.9000 ha         1 A1I       0.171000
     28 H17        -18.7540     7.8930     6.6450 hc         1 A1I       0.050700
     29 H18        -19.0890     9.5750     6.2370 hc         1 A1I       0.050700
     30 H2         -15.7380     8.0570     8.0030 hc         1 A1I       0.050700
     31 O01        -16.9890    11.6150     6.3050 o          1 A1I      -0.652100
     32 H3         -15.3650     9.7770     7.9140 hc         1 A1I       0.050700
@<TRIPOS>BOND
     1     1    11 2   
     2     1    12 1   
     3     1    18 1   
     4     2    15 1   
     5     2    16 1   
     6     2    30 1   
     7     2    32 1   
     8     3    16 2   
     9     3    17 1   
    10     3    19 1   
    11     4     5 1   
    12     4    15 1   
    13     4    31 2   
    14     5     6 1   
    15     5    20 1   
    16     6     7 1   
    17     6    10 1   
    18     6    21 1   
    19     7     8 1   
    20     7     9 1   
    21    10    11 1   
    22    10    22 1   
    23    10    23 1   
    24    11    14 1   
    25    12    13 1   
    26    12    24 1   
    27    13    14 2   
    28    13    25 1   
    29    15    17 1   
    30    15    26 1   
    31    16    27 1   
    32    17    28 1   
    33    17    29 1   
@<TRIPOS>SUBSTRUCTURE
     1 A1I         1 TEMP              0 ****  ****    0 ROOT
