@<TRIPOS>MOLECULE
A1I
   30    32     1     0     0
SMALL
abcg2


@<TRIPOS>ATOM
      1 C1         -14.2460    26.1230   -76.0690 cc         1 A1I      -0.108600
      2 C2         -15.5690    26.0220   -76.4220 cd         1 A1I       0.084900
      3 C3         -16.0130    26.5850   -77.6910 c          1 A1I       0.531200
      4 C7         -10.3890    28.2100   -79.4470 ca         1 A1I      -0.120000
      5 C8         -10.7430    29.1570   -80.4370 ca         1 A1I      -0.036000
      6 C9          -9.7800    29.7840   -81.2600 ca         1 A1I      -0.097000
      7 C10        -10.1630    30.6980   -82.2040 ca         1 A1I      -0.120000
      8 C11        -11.5240    31.0260   -82.3690 ca         1 A1I      -0.121000
      9 C12        -12.4780    30.4340   -81.5870 ca         1 A1I      -0.096000
     10 C13        -12.1120    29.4830   -80.6050 ca         1 A1I      -0.037000
     11 C14        -13.0780    28.8540   -79.7880 ca         1 A1I      -0.115000
     12 O3         -17.1550    26.5430   -78.1160 o          1 A1I      -0.573000
     13 O2         -16.4800    25.4240   -75.6820 oh         1 A1I      -0.596100
     14 N          -14.9910    27.1720   -78.3990 ns         1 A1I      -0.410400
     15 C4         -13.6950    27.2510   -77.9750 cd         1 A1I       0.414500
     16 N1         -13.3220    26.7460   -76.8510 nc         1 A1I      -0.515300
     17 C          -13.7900    25.5230   -74.7590 c          1 A1I       0.739200
     18 O1         -14.7160    24.9490   -74.0960 o          1 A1I      -0.672000
     19 O          -12.6130    25.6170   -74.4250 o          1 A1I      -0.672000
     20 C5         -12.7130    27.9290   -78.8400 ca         1 A1I      -0.077900
     21 C6         -11.3400    27.6170   -78.6700 ca         1 A1I      -0.059000
     22 H6          -9.4190    31.1740   -82.8310 ha         1 A1I       0.102000
     23 H7         -11.8130    31.7510   -83.1200 ha         1 A1I       0.103000
     24 H8         -13.5250    30.6840   -81.7120 ha         1 A1I       0.109000
     25 H9         -14.1110    29.1490   -79.9270 ha         1 A1I       0.110000
     26 H1         -15.9080    25.1040   -74.8660 ho         1 A1I       0.556000
     27 H2         -15.2420    27.5320   -79.3110 hn         1 A1I       0.304500
     28 H3         -11.0560    26.8930   -77.9190 ha         1 A1I       0.155000
     29 H4          -9.3440    27.9550   -79.3130 ha         1 A1I       0.110000
     30 H5          -8.7350    29.5300   -81.1310 ha         1 A1I       0.107000
@<TRIPOS>BOND
     1     1     2 2   
     2     1    16 1   
     3     1    17 1   
     4     2     3 1   
     5     2    13 1   
     6     3    12 2   
     7     3    14 1   
     8     4     5 ar  
     9     4    21 ar  
    10     4    29 1   
    11     5     6 ar  
    12     5    10 ar  
    13     6     7 ar  
    14     6    30 1   
    15     7     8 ar  
    16     7    22 1   
    17     8     9 ar  
    18     8    23 1   
    19     9    10 ar  
    20     9    24 1   
    21    10    11 ar  
    22    11    20 ar  
    23    11    25 1   
    24    13    26 1   
    25    14    15 1   
    26    14    27 1   
    27    15    16 2   
    28    15    20 1   
    29    17    18 1   
    30    17    19 1   
    31    20    21 ar  
    32    21    28 1   
@<TRIPOS>SUBSTRUCTURE
     1 A1I         1 TEMP              0 ****  ****    0 ROOT
