@<TRIPOS>MOLECULE
A1I
   39    41     1     0     0
SMALL
abcg2


@<TRIPOS>ATOM
      1 C1          20.9760     7.5460   115.9460 cc         1 A1I      -0.302400
      2 C2          20.2170     6.4340   115.6810 cd         1 A1I       0.025000
      3 C3          19.5400     7.2050   113.5660 cc         1 A1I      -0.066000
      4 C7          17.4020     5.1530   114.0180 ca         1 A1I      -0.083000
      5 C8          16.6460     4.0080   113.8320 ca         1 A1I      -0.165500
      6 C9          17.1960     2.7280   114.0140 ca         1 A1I       0.293000
      7 C10         18.5560     2.6700   114.3690 ca         1 A1I      -0.165500
      8 C11         19.3130     3.8140   114.5280 ca         1 A1I      -0.083000
      9 C12         17.0280     0.3680   113.3370 c6         1 A1I       0.203800
     10 C13         16.8070     0.3310   111.8310 c6         1 A1I       0.122300
     11 C14         14.7850     1.6070   112.0910 c6         1 A1I       0.122300
     12 C15         15.0270     1.6400   113.5930 c6         1 A1I       0.203800
     13 C5          21.0220     8.5960   114.9660 c          1 A1I       0.559500
     14 C           21.7010     7.5760   117.2930 c          1 A1I       0.731200
     15 O1          21.5370     6.5700   118.0150 o          1 A1I      -0.712500
     16 O           22.3830     8.5780   117.5570 o          1 A1I      -0.712500
     17 C4          20.2520     8.3380   113.7510 cd         1 A1I      -0.071100
     18 O2          20.3030     9.2960   112.8140 oh         1 A1I      -0.556100
     19 N           19.5190     6.2480   114.5470 na         1 A1I      -0.512000
     20 C6          18.7410     5.0680   114.3630 ca         1 A1I       0.247000
     21 N1          16.4440     1.5740   113.9090 nh         1 A1I      -0.796400
     22 N2          15.3840     0.3990   111.5480 n7         1 A1I      -0.864400
     23 H1          20.1400     5.6470   116.4170 h4         1 A1I       0.229000
     24 H2          18.9870     6.9950   112.6620 h4         1 A1I       0.192000
     25 H4          16.9310     6.1200   113.8860 ha         1 A1I       0.129000
     26 H5          15.6140     4.1360   113.5420 ha         1 A1I       0.108000
     27 H6          19.0410     1.7190   114.5370 ha         1 A1I       0.108000
     28 H7          20.3610     3.7210   114.7860 ha         1 A1I       0.129000
     29 H9          18.0880     0.2940   113.5630 h1         1 A1I       0.059200
     30 H8          16.5430    -0.4980   113.7970 h1         1 A1I       0.059200
     31 H10         17.3770     1.1560   111.3730 h1         1 A1I       0.036950
     32 H11         17.2090    -0.6010   111.4280 h1         1 A1I       0.036950
     33 H14         15.1870     2.5270   111.6360 h1         1 A1I       0.036950
     34 H13         13.7110     1.5940   111.8960 h1         1 A1I       0.036950
     35 H16         14.5660     2.5130   114.0520 h1         1 A1I       0.059200
     36 H15         14.5510     0.7650   114.0450 h1         1 A1I       0.059200
     37 H3          20.8740     9.9860   113.1990 ho         1 A1I       0.487000
     38 H17         15.2330     0.3610   110.5490 hn         1 A1I       0.408000
     39 O3          21.6230     9.6810   115.0120 o          1 A1I      -0.592100
@<TRIPOS>BOND
     1     1     2 2   
     2     1    13 1   
     3     1    14 1   
     4     2    19 1   
     5     2    23 1   
     6     3    17 2   
     7     3    19 1   
     8     3    24 1   
     9     4     5 ar  
    10     4    20 ar  
    11     4    25 1   
    12     5     6 ar  
    13     5    26 1   
    14     6     7 ar  
    15     6    21 1   
    16     7     8 ar  
    17     7    27 1   
    18     8    20 ar  
    19     8    28 1   
    20     9    10 1   
    21     9    21 1   
    22     9    29 1   
    23     9    30 1   
    24    10    22 1   
    25    10    31 1   
    26    10    32 1   
    27    11    12 1   
    28    11    22 1   
    29    11    33 1   
    30    11    34 1   
    31    12    21 1   
    32    12    35 1   
    33    12    36 1   
    34    13    17 1   
    35    13    39 2   
    36    14    15 1   
    37    14    16 1   
    38    17    18 1   
    39    18    37 1   
    40    19    20 1   
    41    22    38 1   
@<TRIPOS>SUBSTRUCTURE
     1 A1I         1 TEMP              0 ****  ****    0 ROOT
