@<TRIPOS>MOLECULE
A1I
   24    25     1     0     0
SMALL
No Charge or Current Charge


@<TRIPOS>ATOM
      1 C1         -14.2730    26.5910   -76.2370 cc         1 A1I       0.069400
      2 C2         -15.5740    26.3300   -76.6880 cd         1 A1I      -0.033100
      3 C3         -16.0240    26.7360   -78.0440 c          1 A1I       0.501200
      4 C7         -12.4350    29.8640   -81.0750 ca         1 A1I      -0.114500
      5 C8         -11.0530    29.7270   -80.8850 ca         1 A1I       0.118000
      6 C9         -10.5660    28.9090   -79.8560 ca         1 A1I      -0.114500
      7 C10        -11.4620    28.2200   -79.0190 ca         1 A1I      -0.076500
      8 Cl          -9.9310    30.5910   -81.9280 cl         1 A1I      -0.224000
      9 C6         -13.3350    29.1760   -80.2420 ca         1 A1I      -0.076500
     10 C5         -12.8620    28.3270   -79.2110 ca         1 A1I      -0.101900
     11 C4         -13.8070    27.6260   -78.3060 cd         1 A1I       0.449500
     12 N          -15.0670    27.3680   -78.7600 ns         1 A1I      -0.391400
     13 O3         -17.1440    26.5280   -78.4910 o          1 A1I      -0.623000
     14 O2         -16.5600    25.6960   -75.9890 oh         1 A1I      -0.487100
     15 N1         -13.3830    27.2600   -77.0970 nc         1 A1I      -0.543300
     16 C          -13.8000    26.1710   -74.8450 c          1 A1I       0.740200
     17 O1         -12.6460    26.4330   -74.5200 o          1 A1I      -0.689000
     18 O          -14.5470    25.5860   -74.0670 o          1 A1I      -0.689000
     19 H4         -12.8110    30.5090   -81.8660 ha         1 A1I       0.123500
     20 H5          -9.4950    28.8100   -79.7030 ha         1 A1I       0.123500
     21 H6         -11.0590    27.5920   -78.2270 ha         1 A1I       0.135500
     22 H3         -14.4020    29.3220   -80.4010 ha         1 A1I       0.135500
     23 H2         -15.3290    27.6410   -79.6950 hn         1 A1I       0.309500
     24 H1         -17.3460    25.6700   -76.5850 ho         1 A1I       0.458000
@<TRIPOS>BOND
     1     1     2 2   
     2     1    15 1   
     3     1    16 1   
     4     2     3 1   
     5     2    14 1   
     6     3    12 1   
     7     3    13 2   
     8     4     5 ar  
     9     4     9 ar  
    10     4    19 1   
    11     5     6 ar  
    12     5     8 1   
    13     6     7 ar  
    14     6    20 1   
    15     7    10 ar  
    16     7    21 1   
    17     9    10 ar  
    18     9    22 1   
    19    10    11 1   
    20    11    12 1   
    21    11    15 2   
    22    12    23 1   
    23    14    24 1   
    24    16    17 1   
    25    16    18 1   
@<TRIPOS>SUBSTRUCTURE
     1 A1I         1 TEMP              0 ****  ****    0 ROOT
