@<TRIPOS>MOLECULE
A1I
   34    36     1     0     0
SMALL
No Charge or Current Charge


@<TRIPOS>ATOM
      1 C1           0.7350    29.2730    15.7640 ca         1 A1I      -0.115000
      2 C2           0.7840    28.3880    14.6730 ca         1 A1I      -0.103000
      3 C3           1.9670    27.6680    14.3650 cp         1 A1I      -0.016000
      4 C7           0.8880    25.9650    12.8190 ca         1 A1I      -0.105500
      5 C8           0.9370    25.0800    11.7280 ca         1 A1I      -0.094000
      6 C9           2.1260    24.9080    10.9840 ca         1 A1I      -0.083900
      7 C10          3.2540    25.6840    11.3450 ca         1 A1I      -0.094000
      8 C11          3.2000    26.5670    12.4370 ca         1 A1I      -0.105500
      9 C12          2.1560    24.0040     9.8180 cc         1 A1I       0.416500
     10 C13          3.6060    22.6440     8.4610 c          1 A1I       0.531200
     11 C14          2.3610    22.3070     7.7110 cc         1 A1I       0.083900
     12 C15          1.1010    22.8180     8.0550 cd         1 A1I      -0.107600
     13 C16         -0.1180    22.4180     7.2430 c          1 A1I       0.739200
     14 O1           0.0250    21.6510     6.2960 o          1 A1I      -0.673000
     15 O2          -1.2090    22.8730     7.5590 o          1 A1I      -0.673000
     16 O3           2.5470    21.4550     6.6640 oh         1 A1I      -0.596100
     17 O            4.7350    22.2290     8.2230 o          1 A1I      -0.573000
     18 N            3.3790    23.4910     9.4870 ns         1 A1I      -0.410400
     19 N1           1.0300    23.6990     9.1670 nd         1 A1I      -0.515300
     20 C6           2.0190    26.7240    13.2010 cp         1 A1I      -0.054000
     21 C4           3.0990    27.8710    15.1950 ca         1 A1I      -0.103000
     22 C5           3.0500    28.7550    16.2870 ca         1 A1I      -0.115000
     23 C            1.8680    29.4570    16.5720 ca         1 A1I      -0.119000
     24 H2          -0.1810    29.8180    15.9810 ha         1 A1I       0.106000
     25 H3          -0.1010    28.2710    14.0530 ha         1 A1I       0.116500
     26 H6          -0.0390    26.0500    13.3810 ha         1 A1I       0.107500
     27 H7           0.0430    24.5160    11.4710 ha         1 A1I       0.131000
     28 H8           4.1780    25.6240    10.7750 ha         1 A1I       0.131000
     29 H9           4.0840    27.1530    12.6790 ha         1 A1I       0.107500
     30 H11          1.6310    21.3320     6.2810 ho         1 A1I       0.555000
     31 H            4.1830    23.7370    10.0440 hn         1 A1I       0.304500
     32 H4           4.0200    27.3280    15.0000 ha         1 A1I       0.116500
     33 H5           3.9290    28.8940    16.9130 ha         1 A1I       0.106000
     34 H1           1.8310    30.1410    17.4160 ha         1 A1I       0.104000
@<TRIPOS>BOND
     1     1     2 ar  
     2     1    23 ar  
     3     1    24 1   
     4     2     3 ar  
     5     2    25 1   
     6     3    20 1   
     7     3    21 ar  
     8     4     5 ar  
     9     4    20 ar  
    10     4    26 1   
    11     5     6 ar  
    12     5    27 1   
    13     6     7 ar  
    14     6     9 1   
    15     7     8 ar  
    16     7    28 1   
    17     8    20 ar  
    18     8    29 1   
    19     9    18 1   
    20     9    19 2   
    21    10    11 1   
    22    10    17 2   
    23    10    18 1   
    24    11    12 2   
    25    11    16 1   
    26    12    13 1   
    27    12    19 1   
    28    13    14 1   
    29    13    15 1   
    30    16    30 1   
    31    18    31 1   
    32    21    22 ar  
    33    21    32 1   
    34    22    23 ar  
    35    22    33 1   
    36    23    34 1   
@<TRIPOS>SUBSTRUCTURE
     1 A1I         1 TEMP              0 ****  ****    0 ROOT
