@<TRIPOS>MOLECULE
A1I
   24    25     1     0     0
SMALL
abcg2


@<TRIPOS>ATOM
      1 C1         -14.3060    26.6250   -76.3170 cc         1 A1I       0.069400
      2 C2         -15.5820    26.3490   -76.7110 cd         1 A1I      -0.033100
      3 C3         -16.0390    26.7480   -78.0220 c          1 A1I       0.501200
      4 C7         -12.4020    29.8860   -81.0070 ca         1 A1I      -0.114500
      5 C8         -11.0480    29.6630   -80.8230 ca         1 A1I       0.118000
      6 C9         -10.5940    28.7860   -79.8470 ca         1 A1I      -0.114500
      7 C10        -11.5140    28.1310   -79.0480 ca         1 A1I      -0.076500
      8 CL          -9.9040    30.4920   -81.8200 cl         1 A1I      -0.224000
      9 C6         -13.3140    29.2210   -80.2030 ca         1 A1I      -0.076500
     10 C5         -12.8830    28.3350   -79.2170 ca         1 A1I      -0.101900
     11 C4         -13.8220    27.6310   -78.3250 cd         1 A1I       0.449500
     12 N          -15.0790    27.3720   -78.7760 ns         1 A1I      -0.391400
     13 O3         -17.1740    26.5370   -78.4370 o          1 A1I      -0.623000
     14 O2         -16.4820    25.7360   -75.9270 oh         1 A1I      -0.487100
     15 N1         -13.4410    27.2830   -77.1440 nc         1 A1I      -0.543300
     16 C          -13.7540    26.2550   -74.9420 c          1 A1I       0.740200
     17 O1         -13.1820    27.1800   -74.3430 o          1 A1I      -0.689000
     18 O          -13.9210    25.0800   -74.5800 o          1 A1I      -0.689000
     19 H4         -12.7490    30.5790   -81.7610 ha         1 A1I       0.123500
     20 H5          -9.5350    28.6130   -79.7120 ha         1 A1I       0.123500
     21 H6         -11.1640    27.4480   -78.2860 ha         1 A1I       0.135500
     22 H3         -14.3660    29.4360   -80.3480 ha         1 A1I       0.135500
     23 H2         -15.3400    27.6170   -79.7240 hn         1 A1I       0.309500
     24 H1         -17.3160    25.6810   -76.4160 ho         1 A1I       0.458000
@<TRIPOS>BOND
     1     1     2 2   
     2     1    15 1   
     3     1    16 1   
     4     2     3 1   
     5     2    14 1   
     6     3    12 1   
     7     3    13 2   
     8     4     5 ar  
     9     4     9 ar  
    10     4    19 1   
    11     5     6 ar  
    12     5     8 1   
    13     6     7 ar  
    14     6    20 1   
    15     7    10 ar  
    16     7    21 1   
    17     9    10 ar  
    18     9    22 1   
    19    10    11 1   
    20    11    12 1   
    21    11    15 2   
    22    12    23 1   
    23    14    24 1   
    24    16    17 1   
    25    16    18 1   
@<TRIPOS>SUBSTRUCTURE
     1 A1I         1 TEMP              0 ****  ****    0 ROOT
