@<TRIPOS>MOLECULE
A1I
   38    40     1     0     0
SMALL
abcg2


@<TRIPOS>ATOM
      1 C1          -2.3640    -7.4950    38.6610 cc         1 A1I      -0.107600
      2 C2          -3.4870    -8.0710    39.1990 cd         1 A1I       0.077900
      3 C3          -4.7280    -8.0730    38.4340 c          1 A1I       0.531200
      4 C7          -4.5210    -4.6470    33.9470 ca         1 A1I      -0.118000
      5 C8          -3.5550    -4.9020    32.9850 ca         1 A1I      -0.116000
      6 C9          -2.5710    -5.8480    33.2270 ca         1 A1I      -0.111000
      7 C10         -2.5210    -6.5520    34.4290 cp         1 A1I       0.005000
      8 C11         -1.4800    -7.5870    34.6090 cp         1 A1I      -0.009000
      9 C12         -0.1440    -7.2940    34.3530 ca         1 A1I      -0.080500
     10 C13          0.8380    -8.2670    34.4930 ca         1 A1I      -0.092500
     11 C14          0.5030    -9.5530    34.8910 ca         1 A1I      -0.084300
     12 C15          1.5760   -10.6000    35.0730 c3         1 A1I       0.030000
     13 C16          1.3450   -11.7740    34.2440 c1         1 A1I       0.315900
     14 N2           1.1540   -12.7020    33.5920 n1         1 A1I      -0.494000
     15 C17         -0.8340    -9.8550    35.1380 ca         1 A1I      -0.092500
     16 C18         -1.8120    -8.8870    34.9940 ca         1 A1I      -0.080500
     17 C6          -4.4830    -5.3320    35.1510 ca         1 A1I      -0.105000
     18 C5          -3.4860    -6.2730    35.4080 ca         1 A1I      -0.081900
     19 C4          -3.4360    -6.9110    36.7410 cd         1 A1I       0.409500
     20 N           -4.5900    -7.4750    37.2030 ns         1 A1I      -0.413400
     21 O3          -5.7850    -8.5520    38.8090 o          1 A1I      -0.573000
     22 O2          -3.5180    -8.6410    40.3880 oh         1 A1I      -0.598100
     23 N1          -2.3540    -6.9050    37.4310 nc         1 A1I      -0.502300
     24 C           -1.0790    -7.5110    39.4560 c          1 A1I       0.738200
     25 O1          -1.1720    -8.0740    40.5960 o          1 A1I      -0.673000
     26 O           -0.0670    -7.0060    38.9780 o          1 A1I      -0.673000
     27 H4          -5.2940    -3.9120    33.7680 ha         1 A1I       0.105000
     28 H5          -3.5710    -4.3720    32.0410 ha         1 A1I       0.103000
     29 H6          -1.8380    -6.0630    32.4600 ha         1 A1I       0.110000
     30 H7           0.1410    -6.2920    34.0570 ha         1 A1I       0.114000
     31 H8           1.8720    -8.0130    34.2960 ha         1 A1I       0.109500
     32 H10          2.5600   -10.1980    34.8260 hc         1 A1I       0.078700
     33 H9           1.6240   -10.9330    36.1140 hc         1 A1I       0.078700
     34 H11         -1.1190   -10.8550    35.4410 ha         1 A1I       0.109500
     35 H12         -2.8460    -9.1510    35.1760 ha         1 A1I       0.114000
     36 H3          -5.2200    -5.1100    35.9130 ha         1 A1I       0.118000
     37 H2          -5.4090    -7.4830    36.6050 hn         1 A1I       0.304500
     38 H1          -2.5320    -8.5110    40.7070 ho         1 A1I       0.555000
@<TRIPOS>BOND
     1     1     2 2   
     2     1    23 1   
     3     1    24 1   
     4     2     3 1   
     5     2    22 1   
     6     3    20 1   
     7     3    21 2   
     8     4     5 ar  
     9     4    17 ar  
    10     4    27 1   
    11     5     6 ar  
    12     5    28 1   
    13     6     7 ar  
    14     6    29 1   
    15     7     8 1   
    16     7    18 ar  
    17     8     9 ar  
    18     8    16 ar  
    19     9    10 ar  
    20     9    30 1   
    21    10    11 ar  
    22    10    31 1   
    23    11    12 1   
    24    11    15 ar  
    25    12    13 1   
    26    12    32 1   
    27    12    33 1   
    28    13    14 3   
    29    15    16 ar  
    30    15    34 1   
    31    16    35 1   
    32    17    18 ar  
    33    17    36 1   
    34    18    19 1   
    35    19    20 1   
    36    19    23 2   
    37    20    37 1   
    38    22    38 1   
    39    24    25 1   
    40    24    26 1   
@<TRIPOS>SUBSTRUCTURE
     1 A1I         1 TEMP              0 ****  ****    0 ROOT
