@<TRIPOS>MOLECULE
A1I
   38    40     1     0     0
SMALL
No Charge or Current Charge


@<TRIPOS>ATOM
      1 C1          -2.3260    -7.4160    38.7530 cc         1 A1I      -0.107600
      2 C2          -3.5010    -7.9850    39.2550 cd         1 A1I       0.077900
      3 C3          -4.7740    -7.9900    38.4610 c          1 A1I       0.531200
      4 C7          -4.5280    -4.6300    33.9220 ca         1 A1I      -0.118000
      5 C8          -3.5920    -4.9380    32.9280 ca         1 A1I      -0.116000
      6 C9          -2.6090    -5.9080    33.1740 ca         1 A1I      -0.111000
      7 C10         -2.5410    -6.5920    34.4130 cp         1 A1I       0.005000
      8 C11         -1.5020    -7.6530    34.5960 cp         1 A1I      -0.009000
      9 C12         -0.1450    -7.3960    34.2880 ca         1 A1I      -0.080500
     10 C13          0.8360    -8.3910    34.4450 ca         1 A1I      -0.092500
     11 C14          0.4800    -9.6720    34.9090 ca         1 A1I      -0.084300
     12 C15          1.5440   -10.7530    35.0810 c3         1 A1I       0.030000
     13 C16          1.7140   -11.5390    33.8530 c1         1 A1I       0.315900
     14 N2           1.8690   -12.1790    32.8900 n1         1 A1I      -0.494000
     15 C17         -0.8680    -9.9460    35.2080 ca         1 A1I      -0.092500
     16 C18         -1.8460    -8.9500    35.0500 ca         1 A1I      -0.080500
     17 C6          -4.4770    -5.2860    35.1620 ca         1 A1I      -0.105000
     18 C5          -3.4940    -6.2680    35.4270 ca         1 A1I      -0.081900
     19 C4          -3.4710    -6.8600    36.7780 cd         1 A1I       0.409500
     20 N           -4.6340    -7.3990    37.2470 ns         1 A1I      -0.413400
     21 O3          -5.8480    -8.4610    38.8190 o          1 A1I      -0.573000
     22 O2          -3.5790    -8.5670    40.4870 oh         1 A1I      -0.598100
     23 N1          -2.3340    -6.8380    37.4740 nc         1 A1I      -0.502300
     24 C           -1.0650    -7.4300    39.5920 c          1 A1I       0.738200
     25 O1          -1.1010    -7.9480    40.7040 o          1 A1I      -0.673000
     26 O           -0.0450    -6.9220    39.1450 o          1 A1I      -0.673000
     27 H4          -5.2900    -3.8750    33.7370 ha         1 A1I       0.105000
     28 H5          -3.6280    -4.4290    31.9670 ha         1 A1I       0.103000
     29 H6          -1.8980    -6.1500    32.3880 ha         1 A1I       0.110000
     30 H7           0.1490    -6.4120    33.9330 ha         1 A1I       0.114000
     31 H8           1.8720    -8.1630    34.2060 ha         1 A1I       0.109500
     32 H10          2.5100   -10.3100    35.3480 hc         1 A1I       0.078700
     33 H9           1.2780   -11.4340    35.8970 hc         1 A1I       0.078700
     34 H11         -1.1610   -10.9330    35.5610 ha         1 A1I       0.109500
     35 H12         -2.8830    -9.1850    35.2740 ha         1 A1I       0.114000
     36 H3          -5.1980    -5.0150    35.9310 ha         1 A1I       0.118000
     37 H2          -5.4610    -7.3830    36.6670 hn         1 A1I       0.304500
     38 H1          -2.6570    -8.4710    40.8620 ho         1 A1I       0.555000
@<TRIPOS>BOND
     1     1     2 2   
     2     1    23 1   
     3     1    24 1   
     4     2     3 1   
     5     2    22 1   
     6     3    20 1   
     7     3    21 2   
     8     4     5 ar  
     9     4    17 ar  
    10     4    27 1   
    11     5     6 ar  
    12     5    28 1   
    13     6     7 ar  
    14     6    29 1   
    15     7     8 1   
    16     7    18 ar  
    17     8     9 ar  
    18     8    16 ar  
    19     9    10 ar  
    20     9    30 1   
    21    10    11 ar  
    22    10    31 1   
    23    11    12 1   
    24    11    15 ar  
    25    12    13 1   
    26    12    32 1   
    27    12    33 1   
    28    13    14 3   
    29    15    16 ar  
    30    15    34 1   
    31    16    35 1   
    32    17    18 ar  
    33    17    36 1   
    34    18    19 1   
    35    19    20 1   
    36    19    23 2   
    37    20    37 1   
    38    22    38 1   
    39    24    25 1   
    40    24    26 1   
@<TRIPOS>SUBSTRUCTURE
     1 A1I         1 TEMP              0 ****  ****    0 ROOT
