@<TRIPOS>MOLECULE
A1I
   39    41     1     0     0
SMALL
No Charge or Current Charge


@<TRIPOS>ATOM
      1 C1          20.6640     7.5840   116.3280 cc         1 A1I      -0.302400
      2 C2          19.9120     6.5130   115.8700 cd         1 A1I       0.025000
      3 C3          20.2470     7.2570   113.4590 cc         1 A1I      -0.066000
      4 C7          17.6700     5.5000   113.6610 ca         1 A1I      -0.083000
      5 C8          16.8810     4.3910   113.3000 ca         1 A1I      -0.165500
      6 C9          17.3960     3.0830   113.3880 ca         1 A1I       0.293000
      7 C10         18.7200     2.9040   113.8400 ca         1 A1I      -0.165500
      8 C11         19.5090     4.0120   114.2030 ca         1 A1I      -0.083000
      9 C12         17.1930     0.6940   112.5450 c6         1 A1I       0.203800
     10 C13         16.1960    -0.1600   111.6910 c6         1 A1I       0.122300
     11 C14         14.2790     0.9230   112.7780 c6         1 A1I       0.122300
     12 C15         15.2390     1.7970   113.6540 c6         1 A1I       0.203800
     13 C5          21.2550     8.5530   115.3890 c          1 A1I       0.559500
     14 C           20.8480     7.7210   117.7960 c          1 A1I       0.731200
     15 O1          20.3290     6.8810   118.5170 o          1 A1I      -0.712500
     16 O           21.4960     8.6410   118.2670 o          1 A1I      -0.712500
     17 C4          20.9880     8.3100   113.9400 cd         1 A1I      -0.071100
     18 O2          21.5450     9.2300   113.1030 oh         1 A1I      -0.556100
     19 N           19.7690     6.4170   114.4720 na         1 A1I      -0.512000
     20 C6          18.9870     5.3160   114.1170 ca         1 A1I       0.247000
     21 N1          16.5870     1.9830   113.0180 nh         1 A1I      -0.796400
     22 N2          14.8830    -0.3770   112.3650 n7         1 A1I      -0.864400
     23 H1          19.4410     5.7620   116.5060 h4         1 A1I       0.229000
     24 H2          20.0280     7.0420   112.4170 h4         1 A1I       0.192000
     25 H4          17.2620     6.5050   113.5870 ha         1 A1I       0.129000
     26 H5          15.8710     4.5540   112.9380 ha         1 A1I       0.108000
     27 H6          19.1440     1.9080   113.9260 ha         1 A1I       0.108000
     28 H7          20.5280     3.8620   114.5490 ha         1 A1I       0.129000
     29 H9          18.0850     0.8920   111.9320 h1         1 A1I       0.059200
     30 H8          17.5170     0.0940   113.4090 h1         1 A1I       0.059200
     31 H10         16.0240     0.3550   110.7340 h1         1 A1I       0.036950
     32 H11         16.6550    -1.1330   111.4590 h1         1 A1I       0.036950
     33 H14         14.0100     1.4940   111.8770 h1         1 A1I       0.036950
     34 H13         13.3490     0.7350   113.3350 h1         1 A1I       0.036950
     35 H16         14.7510     2.7660   113.8350 h1         1 A1I       0.059200
     36 H15         15.3580     1.3120   114.6340 h1         1 A1I       0.059200
     37 H3          22.0190     9.8720   113.6860 ho         1 A1I       0.487000
     38 H17         14.2440    -0.8550   111.7150 hn         1 A1I       0.408000
     39 O3          21.9350     9.5250   115.7100 o          1 A1I      -0.592100
@<TRIPOS>BOND
     1     1     2 2   
     2     1    13 1   
     3     1    14 1   
     4     2    19 1   
     5     2    23 1   
     6     3    17 2   
     7     3    19 1   
     8     3    24 1   
     9     4     5 ar  
    10     4    20 ar  
    11     4    25 1   
    12     5     6 ar  
    13     5    26 1   
    14     6     7 ar  
    15     6    21 1   
    16     7     8 ar  
    17     7    27 1   
    18     8    20 ar  
    19     8    28 1   
    20     9    10 1   
    21     9    21 1   
    22     9    29 1   
    23     9    30 1   
    24    10    22 1   
    25    10    31 1   
    26    10    32 1   
    27    11    12 1   
    28    11    22 1   
    29    11    33 1   
    30    11    34 1   
    31    12    21 1   
    32    12    35 1   
    33    12    36 1   
    34    13    17 1   
    35    13    39 2   
    36    14    15 1   
    37    14    16 1   
    38    17    18 1   
    39    18    37 1   
    40    19    20 1   
    41    22    38 1   
@<TRIPOS>SUBSTRUCTURE
     1 A1I         1 TEMP              0 ****  ****    0 ROOT
