@<TRIPOS>MOLECULE
A1I
   34    36     1     0     0
SMALL
abcg2


@<TRIPOS>ATOM
      1 C1           0.7230    29.2620    15.6250 ca         1 A1I      -0.115000
      2 C2           0.7930    28.3670    14.5680 ca         1 A1I      -0.103000
      3 C3           1.9540    27.6280    14.3320 cp         1 A1I      -0.016000
      4 C7           0.9260    25.9230    12.8140 ca         1 A1I      -0.105500
      5 C8           0.9960    25.0520    11.7440 ca         1 A1I      -0.094000
      6 C9           2.1800    24.9040    11.0200 ca         1 A1I      -0.083900
      7 C10          3.2870    25.6610    11.4000 ca         1 A1I      -0.094000
      8 C11          3.2120    26.5370    12.4700 ca         1 A1I      -0.105500
      9 C12          2.2090    23.9880     9.8670 cc         1 A1I       0.416500
     10 C13          3.6030    22.6680     8.3800 c          1 A1I       0.531200
     11 C14          2.3580    22.3540     7.6890 cc         1 A1I       0.083900
     12 C15          1.1770    22.8620     8.1700 cd         1 A1I      -0.107600
     13 C16         -0.1110    22.5180     7.4600 c          1 A1I       0.739200
     14 O1           0.0380    21.7710     6.4360 o          1 A1I      -0.673000
     15 O2          -1.1760    22.9550     7.8850 o          1 A1I      -0.673000
     16 O3           2.4430    21.5750     6.6300 oh         1 A1I      -0.596100
     17 O            4.7050    22.2560     8.0600 o          1 A1I      -0.573000
     18 N            3.4160    23.4880     9.4670 ns         1 A1I      -0.410400
     19 N1           1.1180    23.6860     9.2540 nd         1 A1I      -0.515300
     20 C6           2.0320    26.6860    13.1990 cp         1 A1I      -0.054000
     21 C4           3.0420    27.8090    15.1880 ca         1 A1I      -0.103000
     22 C5           2.9730    28.7040    16.2450 ca         1 A1I      -0.115000
     23 C            1.8130    29.4350    16.4670 ca         1 A1I      -0.119000
     24 H2          -0.1830    29.8310    15.7860 ha         1 A1I       0.106000
     25 H3          -0.0590    28.2610    13.9080 ha         1 A1I       0.116500
     26 H6          -0.0000    25.9930    13.3710 ha         1 A1I       0.107500
     27 H7           0.1280    24.4690    11.4690 ha         1 A1I       0.131000
     28 H8           4.2180    25.6140    10.8480 ha         1 A1I       0.131000
     29 H9           4.0800    27.1340    12.7170 ha         1 A1I       0.107500
     30 H11          1.4410    21.5060     6.3410 ho         1 A1I       0.555000
     31 H            4.2490    23.7010    10.0030 hn         1 A1I       0.304500
     32 H4           3.9470    27.2320    15.0410 ha         1 A1I       0.116500
     33 H5           3.8250    28.8260    16.9010 ha         1 A1I       0.106000
     34 H1           1.7600    30.1350    17.2910 ha         1 A1I       0.104000
@<TRIPOS>BOND
     1     1     2 ar  
     2     1    23 ar  
     3     1    24 1   
     4     2     3 ar  
     5     2    25 1   
     6     3    20 1   
     7     3    21 ar  
     8     4     5 ar  
     9     4    20 ar  
    10     4    26 1   
    11     5     6 ar  
    12     5    27 1   
    13     6     7 ar  
    14     6     9 1   
    15     7     8 ar  
    16     7    28 1   
    17     8    20 ar  
    18     8    29 1   
    19     9    18 1   
    20     9    19 2   
    21    10    11 1   
    22    10    17 2   
    23    10    18 1   
    24    11    12 2   
    25    11    16 1   
    26    12    13 1   
    27    12    19 1   
    28    13    14 1   
    29    13    15 1   
    30    16    30 1   
    31    18    31 1   
    32    21    22 ar  
    33    21    32 1   
    34    22    23 ar  
    35    22    33 1   
    36    23    34 1   
@<TRIPOS>SUBSTRUCTURE
     1 A1I         1 TEMP              0 ****  ****    0 ROOT
