@<TRIPOS>MOLECULE
A1I
   30    32     1     0     0
SMALL
No Charge or Current Charge


@<TRIPOS>ATOM
      1 C1         -14.2370    26.0670   -75.9960 cc         1 A1I      -0.108600
      2 C2         -15.5730    26.0290   -76.4060 cd         1 A1I       0.084900
      3 C3         -16.0100    26.6320   -77.7080 c          1 A1I       0.531200
      4 C7         -10.3320    28.2480   -79.4830 ca         1 A1I      -0.120000
      5 C8         -10.7290    29.1740   -80.4620 ca         1 A1I      -0.036000
      6 C9          -9.7690    29.8130   -81.2690 ca         1 A1I      -0.097000
      7 C10        -10.1740    30.7440   -82.2410 ca         1 A1I      -0.120000
      8 C11        -11.5370    31.0400   -82.4070 ca         1 A1I      -0.121000
      9 C12        -12.4990    30.4040   -81.6030 ca         1 A1I      -0.096000
     10 C13        -12.0990    29.4680   -80.6290 ca         1 A1I      -0.037000
     11 C14        -13.0600    28.8300   -79.8220 ca         1 A1I      -0.115000
     12 O3         -17.1520    26.6440   -78.1520 o          1 A1I      -0.573000
     13 O2         -16.5640    25.4480   -75.6700 oh         1 A1I      -0.596100
     14 N          -14.9830    27.1950   -78.3950 ns         1 A1I      -0.410400
     15 C4         -13.6830    27.2280   -77.9700 cd         1 A1I       0.414500
     16 N1         -13.2820    26.6860   -76.8180 nc         1 A1I      -0.515300
     17 C          -13.8380    25.4400   -74.6760 c          1 A1I       0.739200
     18 O1         -14.7040    24.9090   -73.9880 o          1 A1I      -0.672000
     19 O          -12.6650    25.4800   -74.3290 o          1 A1I      -0.672000
     20 C5         -12.6740    27.8810   -78.8440 ca         1 A1I      -0.077900
     21 C6         -11.2930    27.6130   -78.6780 ca         1 A1I      -0.059000
     22 H6          -9.4300    31.2370   -82.8640 ha         1 A1I       0.102000
     23 H7         -11.8490    31.7610   -83.1590 ha         1 A1I       0.103000
     24 H8         -13.5520    30.6390   -81.7380 ha         1 A1I       0.109000
     25 H9         -14.1070    29.0890   -79.9570 ha         1 A1I       0.110000
     26 H1         -16.0950    25.1050   -74.8560 ho         1 A1I       0.556000
     27 H2         -15.2270    27.6010   -79.2860 hn         1 A1I       0.304500
     28 H3         -10.9550    26.9010   -77.9280 ha         1 A1I       0.155000
     29 H4          -9.2790    28.0190   -79.3420 ha         1 A1I       0.110000
     30 H5          -8.7120    29.5900   -81.1440 ha         1 A1I       0.107000
@<TRIPOS>BOND
     1     1     2 2   
     2     1    16 1   
     3     1    17 1   
     4     2     3 1   
     5     2    13 1   
     6     3    12 2   
     7     3    14 1   
     8     4     5 ar  
     9     4    21 ar  
    10     4    29 1   
    11     5     6 ar  
    12     5    10 ar  
    13     6     7 ar  
    14     6    30 1   
    15     7     8 ar  
    16     7    22 1   
    17     8     9 ar  
    18     8    23 1   
    19     9    10 ar  
    20     9    24 1   
    21    10    11 ar  
    22    11    20 ar  
    23    11    25 1   
    24    13    26 1   
    25    14    15 1   
    26    14    27 1   
    27    15    16 2   
    28    15    20 1   
    29    17    18 1   
    30    17    19 1   
    31    20    21 ar  
    32    21    28 1   
@<TRIPOS>SUBSTRUCTURE
     1 A1I         1 TEMP              0 ****  ****    0 ROOT
