@<TRIPOS>MOLECULE
A1I
   45    46     1     0     0
SMALL
abcg2


@<TRIPOS>ATOM
      1 C4         -30.6600    12.2790     8.0690 c3         1 A1I       0.212800
      2 C6         -31.5660    11.1510     8.5210 ca         1 A1I      -0.120300
      3 C7         -32.9380    11.2140     8.3040 ca         1 A1I      -0.094000
      4 C8         -33.7570    10.1630     8.6930 ca         1 A1I      -0.111000
      5 C10        -31.8420     8.9620     9.5500 ca         1 A1I      -0.041800
      6 C13        -30.1780     7.8770    10.9980 c2         1 A1I      -0.311000
      7 C20        -26.1500    11.3360     4.0780 ca         1 A1I       0.186000
      8 C22        -26.3580    12.0440     2.9110 ca         1 A1I      -0.156000
      9 C1         -31.2880    12.1460     5.0430 c3         1 A1I       0.175100
     10 C3         -29.7490    11.8220     6.9240 c3         1 A1I       0.200800
     11 N5         -29.8040    12.8560     9.0910 n8         1 A1I      -1.002200
     12 C9         -33.2150     9.0430     9.3040 ca         1 A1I      -0.095000
     13 C11        -31.0370    10.0250     9.1400 ca         1 A1I      -0.091000
     14 C12        -31.2550     7.7760    10.2140 ce         1 A1I      -0.055400
     15 C14        -31.9210     6.4510     9.9770 c3         1 A1I      -0.054900
     16 S15        -29.7910     9.9580     5.0380 sy         1 A1I       1.160600
     17 O16        -29.2480     9.0450     6.0270 o          1 A1I      -0.525500
     18 O17        -30.7380     9.4670     4.0540 o          1 A1I      -0.525500
     19 C18        -28.4260    10.6990     4.1680 ca         1 A1I      -0.247500
     20 C19        -27.1610    10.6600     4.7340 ca         1 A1I      -0.084000
     21 C23        -27.6400    12.0520     2.3930 ca         1 A1I       0.186000
     22 F24        -27.8690    12.7370     1.2720 f          1 A1I      -0.166000
     23 C25        -28.6900    11.3820     2.9880 ca         1 A1I      -0.084000
     24 H26        -31.2960    13.0920     7.7070 h1         1 A1I       0.063700
     25 H35        -33.3660    12.0840     7.8190 ha         1 A1I       0.107000
     26 H36        -34.8240    10.2160     8.5170 ha         1 A1I       0.114000
     27 H39        -29.7430     7.0030    11.4650 ha         1 A1I       0.163500
     28 H40        -29.7050     8.8260    11.2150 ha         1 A1I       0.163500
     29 H45        -25.5490    12.5700     2.4210 ha         1 A1I       0.154000
     30 H30        -32.0350    12.6090     5.6840 h1         1 A1I       0.054367
     31 H31        -30.6640    12.9360     4.6140 h1         1 A1I       0.054367
     32 H32        -31.8210    11.6370     4.2470 h1         1 A1I       0.054367
     33 H33        -29.0320    11.1050     7.3250 h1         1 A1I       0.061200
     34 H34        -29.1820    12.6840     6.5540 h1         1 A1I       0.061200
     35 H27        -30.3710    13.2390     9.8350 hn         1 A1I       0.404000
     36 H28        -29.2230    12.1430     9.5160 hn         1 A1I       0.404000
     37 H37        -33.8730     8.2360     9.6010 ha         1 A1I       0.115000
     38 H38        -29.9650     9.9510     9.2860 ha         1 A1I       0.112000
     39 H41        -31.3450     5.6380    10.4170 hc         1 A1I       0.043033
     40 H42        -32.9200     6.4180    10.4150 hc         1 A1I       0.043033
     41 H43        -32.0370     6.2520     8.9100 hc         1 A1I       0.043033
     42 H44        -26.9570    10.1200     5.6490 ha         1 A1I       0.156500
     43 H46        -29.6720    11.3990     2.5350 ha         1 A1I       0.156500
     44 N2         -30.5070    11.2070     5.8380 n3         1 A1I      -0.717500
     45 F21        -24.9200    11.3090     4.5940 f          1 A1I      -0.166000
@<TRIPOS>BOND
     1     1     2 1   
     2     1    10 1   
     3     1    11 1   
     4     1    24 1   
     5     2     3 ar  
     6     2    13 ar  
     7     3     4 ar  
     8     3    25 1   
     9     4    12 ar  
    10     4    26 1   
    11     5    12 ar  
    12     5    13 ar  
    13     5    14 1   
    14     6    14 2   
    15     6    27 1   
    16     6    28 1   
    17     7     8 ar  
    18     7    20 ar  
    19     7    45 1   
    20     8    21 ar  
    21     8    29 1   
    22     9    30 1   
    23     9    31 1   
    24     9    32 1   
    25     9    44 1   
    26    10    33 1   
    27    10    34 1   
    28    10    44 1   
    29    11    35 1   
    30    11    36 1   
    31    12    37 1   
    32    13    38 1   
    33    14    15 1   
    34    15    39 1   
    35    15    40 1   
    36    15    41 1   
    37    16    17 2   
    38    16    18 2   
    39    16    19 1   
    40    16    44 1   
    41    19    20 ar  
    42    19    23 ar  
    43    20    42 1   
    44    21    22 1   
    45    21    23 ar  
    46    23    43 1   
@<TRIPOS>SUBSTRUCTURE
     1 A1I         1 TEMP              0 ****  ****    0 ROOT
