@<TRIPOS>MOLECULE
A1I
   38    39     1     0     0
SMALL
No Charge or Current Charge


@<TRIPOS>ATOM
      1 C1         -31.8350    10.9310     5.1710 c3         1 A1I       0.179100
      2 C3         -29.9930    11.2010     6.8170 c3         1 A1I       0.211800
      3 C6         -31.5720    10.6580     8.8050 ca         1 A1I      -0.125300
      4 C7         -32.9390    10.8080     9.1180 ca         1 A1I      -0.095500
      5 C8         -33.6170     9.8190     9.8520 ca         1 A1I      -0.105000
      6 C10        -31.5710     8.5120     9.9800 ca         1 A1I      -0.105000
      7 C11        -30.8920     9.5010     9.2460 ca         1 A1I      -0.095500
      8 C15        -28.6740    10.7430     4.0490 ca         1 A1I      -0.245500
      9 C16        -29.1540    11.3760     2.8800 ca         1 A1I      -0.083500
     10 C19        -27.1770    12.8010     2.8150 ca         1 A1I      -0.157000
     11 C22        -27.4300    11.1480     4.5900 ca         1 A1I      -0.083500
     12 N2         -30.6950    10.2900     5.8680 n3         1 A1I      -0.737500
     13 C4         -30.8520    11.7480     8.0080 c3         1 A1I       0.209800
     14 N5         -30.0550    12.5750     8.9420 n8         1 A1I      -1.002200
     15 C9         -32.9330     8.6700    10.2830 ca         1 A1I      -0.102000
     16 S12        -29.6350     9.4290     4.8410 sy         1 A1I       1.171600
     17 O13        -28.7730     8.6330     5.7220 o          1 A1I      -0.526500
     18 O14        -30.4770     8.7760     3.8320 o          1 A1I      -0.526500
     19 C17        -28.4060    12.3990     2.2730 ca         1 A1I       0.185500
     20 F18        -28.8730    13.0010     1.1570 f          1 A1I      -0.166000
     21 C20        -26.6930    12.1720     3.9720 ca         1 A1I       0.185500
     22 F21        -25.5080    12.5550     4.4950 f          1 A1I      -0.166000
     23 H27        -32.5500    11.3560     5.8870 h1         1 A1I       0.053033
     24 H28        -31.4930    11.7410     4.5130 h1         1 A1I       0.053033
     25 H29        -32.3940    10.2070     4.5640 h1         1 A1I       0.053033
     26 H30        -29.1310    10.6830     7.2570 h1         1 A1I       0.061700
     27 H31        -29.5890    12.0660     6.2730 h1         1 A1I       0.061700
     28 H32        -33.4810    11.6930     8.7910 ha         1 A1I       0.107000
     29 H33        -34.6720     9.9430    10.0860 ha         1 A1I       0.114000
     30 H35        -31.0390     7.6240    10.3140 ha         1 A1I       0.114000
     31 H36        -29.8370     9.3620     9.0230 ha         1 A1I       0.107000
     32 H37        -30.1040    11.0820     2.4370 ha         1 A1I       0.156000
     33 H38        -26.6030    13.5910     2.3420 ha         1 A1I       0.154000
     34 H39        -27.0310    10.6760     5.4850 ha         1 A1I       0.156000
     35 H23        -31.6120    12.4110     7.5720 h1         1 A1I       0.066700
     36 H24        -30.6880    12.9430     9.6620 hn         1 A1I       0.403500
     37 H25        -29.4380    11.9540     9.4770 hn         1 A1I       0.403500
     38 H34        -33.4580     7.9040    10.8500 ha         1 A1I       0.114000
@<TRIPOS>BOND
     1     1    12 1   
     2     1    23 1   
     3     1    24 1   
     4     1    25 1   
     5     2    12 1   
     6     2    13 1   
     7     2    26 1   
     8     2    27 1   
     9     3     4 ar  
    10     3     7 ar  
    11     3    13 1   
    12     4     5 ar  
    13     4    28 1   
    14     5    15 ar  
    15     5    29 1   
    16     6     7 ar  
    17     6    15 ar  
    18     6    30 1   
    19     7    31 1   
    20     8     9 ar  
    21     8    11 ar  
    22     8    16 1   
    23     9    19 ar  
    24     9    32 1   
    25    10    19 ar  
    26    10    21 ar  
    27    10    33 1   
    28    11    21 ar  
    29    11    34 1   
    30    12    16 1   
    31    13    14 1   
    32    13    35 1   
    33    14    36 1   
    34    14    37 1   
    35    15    38 1   
    36    16    17 2   
    37    16    18 2   
    38    19    20 1   
    39    21    22 1   
@<TRIPOS>SUBSTRUCTURE
     1 A1I         1 TEMP              0 ****  ****    0 ROOT
