@<TRIPOS>MOLECULE
A1I
   38    40     1     0     0
SMALL
abcg2


@<TRIPOS>ATOM
      1 C20         38.7000    20.5570     8.3620 cc         1 A1I       0.328000
      2 C22         39.4850    20.4790     9.4700 cd         1 A1I      -0.209000
      3 C28         40.5040    18.2570    11.3800 ca         1 A1I      -0.121300
      4 C05         42.6170    16.5890     6.6030 cc         1 A1I      -0.204400
      5 C06         42.0550    17.6500     7.2370 cd         1 A1I      -0.092000
      6 C08         40.6470    17.7790     7.3680 cd         1 A1I      -0.255800
      7 C09         39.8730    16.8120     6.8060 cc         1 A1I       0.010600
      8 N11         40.4080    15.7550     6.1570 n          1 A1I      -0.266000
      9 C12         39.5350    14.7500     5.5650 c3         1 A1I       0.075300
     10 C16         41.7780    15.5620     6.0220 c          1 A1I       0.547200
     11 O17         42.2040    14.5760     5.4320 o          1 A1I      -0.550000
     12 C18         39.9990    18.9250     8.0050 cd         1 A1I       0.483300
     13 N19         39.0150    19.6080     7.4580 nc         1 A1I      -0.660000
     14 CL21        37.4610    21.7020     8.0580 cl         1 A1I      -0.142000
     15 N24         40.3180    19.4210     9.2270 na         1 A1I      -0.148500
     16 C25         41.2340    18.8760    10.2170 c3         1 A1I       0.117900
     17 C29         40.6060    18.8070    12.6520 ca         1 A1I      -0.089500
     18 C31         39.9420    18.2260    13.7260 ca         1 A1I      -0.109500
     19 C33         39.1660    17.0930    13.5310 ca         1 A1I      -0.095000
     20 C35         39.0580    16.5390    12.2600 ca         1 A1I      -0.109500
     21 C37         39.7240    17.1180    11.1910 ca         1 A1I      -0.089500
     22 H23         39.5240    21.0590    10.3770 h4         1 A1I       0.171000
     23 H02         44.6260    17.2550     6.9160 hc         1 A1I       0.047367
     24 H03         44.4400    15.5010     6.9210 hc         1 A1I       0.047367
     25 H04         44.3890    16.3770     5.4040 hc         1 A1I       0.047367
     26 H07         42.6990    18.4270     7.6350 ha         1 A1I       0.186000
     27 H10         38.7930    16.8480     6.8530 h4         1 A1I       0.217000
     28 H13         39.7210    13.7730     6.0060 h1         1 A1I       0.057700
     29 H14         38.5020    15.0290     5.7480 h1         1 A1I       0.057700
     30 H15         39.6980    14.6870     4.4920 h1         1 A1I       0.057700
     31 H27         41.8610    18.1310     9.7300 h1         1 A1I       0.071200
     32 H26         41.8910    19.6760    10.5570 h1         1 A1I       0.071200
     33 H30         41.2120    19.6920    12.8060 ha         1 A1I       0.115000
     34 H32         40.0310    18.6610    14.7130 ha         1 A1I       0.117000
     35 H34         38.6480    16.6390    14.3660 ha         1 A1I       0.117000
     36 H36         38.4570    15.6530    12.1040 ha         1 A1I       0.117000
     37 H38         39.6410    16.6760    10.2040 ha         1 A1I       0.115000
     38 C01         44.0950    16.4250     6.4540 c3         1 A1I      -0.032900
@<TRIPOS>BOND
     1     1     2 2   
     2     1    13 1   
     3     1    14 1   
     4     2    15 1   
     5     2    22 1   
     6     3    16 1   
     7     3    17 ar  
     8     3    21 ar  
     9     4     5 2   
    10     4    10 1   
    11     4    38 1   
    12     5     6 1   
    13     5    26 1   
    14     6     7 2   
    15     6    12 1   
    16     7     8 1   
    17     7    27 1   
    18     8     9 1   
    19     8    10 1   
    20     9    28 1   
    21     9    29 1   
    22     9    30 1   
    23    10    11 2   
    24    12    13 2   
    25    12    15 1   
    26    15    16 1   
    27    16    31 1   
    28    16    32 1   
    29    17    18 ar  
    30    17    33 1   
    31    18    19 ar  
    32    18    34 1   
    33    19    20 ar  
    34    19    35 1   
    35    20    21 ar  
    36    20    36 1   
    37    21    37 1   
    38    23    38 1   
    39    24    38 1   
    40    25    38 1   
@<TRIPOS>SUBSTRUCTURE
     1 A1I         1 TEMP              0 ****  ****    0 ROOT
