@<TRIPOS>MOLECULE
A1I
   38    40     1     0     0
SMALL
No Charge or Current Charge


@<TRIPOS>ATOM
      1 C20         37.6580    18.8550     8.7340 cc         1 A1I       0.328000
      2 C22         38.3980    18.7460     9.8700 cd         1 A1I      -0.209000
      3 C28         40.4580    18.1860    11.8430 ca         1 A1I      -0.121300
      4 C05         42.5310    16.1450     6.6090 cc         1 A1I      -0.204400
      5 C06         41.7200    16.7220     7.5700 cd         1 A1I      -0.092000
      6 C08         40.4230    17.2470     7.1940 cd         1 A1I      -0.255800
      7 C09         40.0430    17.1460     5.8630 cc         1 A1I       0.010600
      8 N11         40.8510    16.5670     4.8850 n          1 A1I      -0.266000
      9 C12         40.3850    16.4910     3.4800 c3         1 A1I       0.075300
     10 C16         42.1210    16.0380     5.1840 c          1 A1I       0.547200
     11 O17         42.8280    15.5300     4.3200 o          1 A1I      -0.550000
     12 C18         39.4580    17.8830     8.0930 cd         1 A1I       0.483300
     13 N19         38.2890    18.3360     7.6530 nc         1 A1I      -0.660000
     14 Cl21        36.0810    19.5710     8.6410 cl         1 A1I      -0.142000
     15 N24         39.5740    18.1150     9.4790 na         1 A1I      -0.148500
     16 C25         40.6870    17.7830    10.3900 c3         1 A1I       0.117900
     17 C29         40.8550    19.4590    12.2990 ca         1 A1I      -0.089500
     18 C31         40.6360    19.8320    13.6360 ca         1 A1I      -0.109500
     19 C33         40.0190    18.9360    14.5250 ca         1 A1I      -0.095000
     20 C35         39.6210    17.6660    14.0760 ca         1 A1I      -0.109500
     21 C37         39.8390    17.2910    12.7390 ca         1 A1I      -0.089500
     22 H23         38.1750    19.0600    10.8820 h4         1 A1I       0.171000
     23 H02         44.1440    15.6820     7.9890 hc         1 A1I       0.047367
     24 H03         43.9440    14.5070     6.6830 hc         1 A1I       0.047367
     25 H04         44.6800    16.0880     6.3530 hc         1 A1I       0.047367
     26 H07         42.0980    16.7570     8.5810 ha         1 A1I       0.186000
     27 H10         39.1010    17.4990     5.4520 h4         1 A1I       0.217000
     28 H13         40.3420    15.4420     3.1610 h1         1 A1I       0.057700
     29 H14         39.3860    16.9320     3.3710 h1         1 A1I       0.057700
     30 H15         41.0820    17.0350     2.8290 h1         1 A1I       0.057700
     31 H27         40.8530    16.6990    10.3530 h1         1 A1I       0.071200
     32 H26         41.5920    18.2880    10.0290 h1         1 A1I       0.071200
     33 H30         41.3290    20.1610    11.6160 ha         1 A1I       0.115000
     34 H32         40.9440    20.8170    13.9820 ha         1 A1I       0.117000
     35 H34         39.8500    19.2260    15.5600 ha         1 A1I       0.117000
     36 H36         39.1420    16.9720    14.7630 ha         1 A1I       0.117000
     37 H38         39.5240    16.3070    12.3980 ha         1 A1I       0.115000
     38 C01         43.8970    15.5750     6.9260 c3         1 A1I      -0.032900
@<TRIPOS>BOND
     1     1     2 2   
     2     1    13 1   
     3     1    14 1   
     4     2    15 1   
     5     2    22 1   
     6     3    16 1   
     7     3    17 ar  
     8     3    21 ar  
     9     4     5 2   
    10     4    10 1   
    11     4    38 1   
    12     5     6 1   
    13     5    26 1   
    14     6     7 2   
    15     6    12 1   
    16     7     8 1   
    17     7    27 1   
    18     8     9 1   
    19     8    10 1   
    20     9    28 1   
    21     9    29 1   
    22     9    30 1   
    23    10    11 2   
    24    12    13 2   
    25    12    15 1   
    26    15    16 1   
    27    16    31 1   
    28    16    32 1   
    29    17    18 ar  
    30    17    33 1   
    31    18    19 ar  
    32    18    34 1   
    33    19    20 ar  
    34    19    35 1   
    35    20    21 ar  
    36    20    36 1   
    37    21    37 1   
    38    23    38 1   
    39    24    38 1   
    40    25    38 1   
@<TRIPOS>SUBSTRUCTURE
     1 A1I         1 TEMP              0 ****  ****    0 ROOT
