@<TRIPOS>MOLECULE
A1I
   35    36     1     0     0
SMALL
abcg2


@<TRIPOS>ATOM
      1 C2         -30.1390    13.5160     8.1100 c3         1 A1I       0.222800
      2 C3         -29.4340    12.5690     7.1390 c3         1 A1I       0.189800
      3 N4         -30.3410    11.4990     6.7260 n7         1 A1I      -0.865300
      4 C8         -28.9330    10.8030     4.4970 ca         1 A1I      -0.254500
      5 C10        -27.0200    11.6070     3.3640 ca         1 A1I       0.187000
      6 C12        -27.7680    11.8980     2.2410 ca         1 A1I      -0.156000
      7 C13        -29.1220    11.6210     2.2870 ca         1 A1I       0.187000
      8 C15        -29.7330    11.0710     3.3960 ca         1 A1I      -0.084000
      9 C16        -29.1800    14.6380     8.4370 ca         1 A1I      -0.104300
     10 C19        -27.3400    16.6840     8.9380 ca         1 A1I      -0.103000
     11 C21        -29.1840    15.8010     7.6710 ca         1 A1I      -0.095000
     12 N1         -30.5280    12.7880     9.3020 n8         1 A1I      -0.997200
     13 S5         -29.7050    10.1800     5.9780 sy         1 A1I       1.150600
     14 O6         -28.6560     9.6570     6.8320 o          1 A1I      -0.522000
     15 O7         -30.8180     9.3380     5.5860 o          1 A1I      -0.522000
     16 C9         -27.5710    11.0590     4.5080 ca         1 A1I      -0.084000
     17 F11        -25.7110    11.8650     3.3420 f          1 A1I      -0.164500
     18 F14        -29.8620    11.8940     1.2120 f          1 A1I      -0.164500
     19 C17        -28.2440    14.5130     9.4600 ca         1 A1I      -0.095000
     20 C18        -27.3310    15.5290     9.7100 ca         1 A1I      -0.113500
     21 C20        -28.2710    16.8180     7.9170 ca         1 A1I      -0.113500
     22 H25        -30.9960    13.9550     7.5740 h1         1 A1I       0.017700
     23 H27        -28.5750    12.1250     7.6440 h1         1 A1I       0.067200
     24 H26        -29.0680    13.1400     6.2800 h1         1 A1I       0.067200
     25 H28        -31.1730    11.8330     6.2450 hn         1 A1I       0.475000
     26 H30        -27.3120    12.3240     1.3570 ha         1 A1I       0.155000
     27 H31        -30.7960    10.8650     3.3910 ha         1 A1I       0.158500
     28 H34        -26.6280    17.4760     9.1350 ha         1 A1I       0.114000
     29 H36        -29.9110    15.9130     6.8740 ha         1 A1I       0.121000
     30 H22        -31.0860    13.3860     9.8980 hn         1 A1I       0.409500
     31 H23        -31.1200    12.0080     9.0440 hn         1 A1I       0.409500
     32 H29        -26.9520    10.8450     5.3680 ha         1 A1I       0.158500
     33 H32        -28.2350    13.6160    10.0670 ha         1 A1I       0.121000
     34 H33        -26.6100    15.4180    10.5090 ha         1 A1I       0.114500
     35 H35        -28.2890    17.7160     7.3120 ha         1 A1I       0.114500
@<TRIPOS>BOND
     1     1     2 1   
     2     1     9 1   
     3     1    12 1   
     4     1    22 1   
     5     2     3 1   
     6     2    23 1   
     7     2    24 1   
     8     3    13 1   
     9     3    25 1   
    10     4     8 ar  
    11     4    13 1   
    12     4    16 ar  
    13     5     6 ar  
    14     5    16 ar  
    15     5    17 1   
    16     6     7 ar  
    17     6    26 1   
    18     7     8 ar  
    19     7    18 1   
    20     8    27 1   
    21     9    11 ar  
    22     9    19 ar  
    23    10    20 ar  
    24    10    21 ar  
    25    10    28 1   
    26    11    21 ar  
    27    11    29 1   
    28    12    30 1   
    29    12    31 1   
    30    13    14 2   
    31    13    15 2   
    32    16    32 1   
    33    19    20 ar  
    34    19    33 1   
    35    20    34 1   
    36    21    35 1   
@<TRIPOS>SUBSTRUCTURE
     1 A1I         1 TEMP              0 ****  ****    0 ROOT
