@<TRIPOS>MOLECULE
A1I
   45    46     1     0     0
SMALL
No Charge or Current Charge


@<TRIPOS>ATOM
      1 C4         -30.6000    12.1470     7.8250 c3         1 A1I       0.212800
      2 C6         -31.5390    11.1780     8.5480 ca         1 A1I      -0.120300
      3 C7         -32.8890    11.5320     8.7430 ca         1 A1I      -0.094000
      4 C8         -33.7640    10.6530     9.4010 ca         1 A1I      -0.111000
      5 C10        -31.9520     9.0450     9.6930 ca         1 A1I      -0.041800
      6 C13        -30.2360     7.5960    10.7580 c2         1 A1I      -0.311000
      7 C20        -26.0330    11.8930     4.2530 ca         1 A1I       0.186000
      8 C22        -26.2990    12.5830     3.0610 ca         1 A1I      -0.156000
      9 C1         -31.4230    11.4270     4.9120 c3         1 A1I       0.175100
     10 C3         -29.7180    11.4730     6.7190 c3         1 A1I       0.200800
     11 N5         -29.7840    12.8650     8.8310 n8         1 A1I      -1.002200
     12 C9         -33.2990     9.4150     9.8730 ca         1 A1I      -0.095000
     13 C11        -31.0790     9.9330     9.0310 ca         1 A1I      -0.091000
     14 C12        -31.4570     7.7260    10.1950 ce         1 A1I      -0.055400
     15 C14        -32.3500     6.5150     9.9860 c3         1 A1I      -0.054900
     16 S15        -29.4290     9.6320     4.7950 sy         1 A1I       1.160600
     17 O16        -28.7920     8.7220     5.7540 o          1 A1I      -0.525500
     18 O17        -30.2480     9.1050     3.6970 o          1 A1I      -0.525500
     19 C18        -28.2050    10.7810     4.1170 ca         1 A1I      -0.247500
     20 C19        -26.9750    10.9950     4.7830 ca         1 A1I      -0.084000
     21 C23        -27.5150    12.3710     2.3950 ca         1 A1I       0.186000
     22 F24        -27.7720    13.0320     1.2450 f          1 A1I      -0.166000
     23 C25        -28.4660    11.4760     2.9130 ca         1 A1I      -0.084000
     24 H26        -31.2140    12.9060     7.3220 h1         1 A1I       0.063700
     25 H35        -33.2630    12.4870     8.3830 ha         1 A1I       0.107000
     26 H36        -34.8050    10.9330     9.5470 ha         1 A1I       0.114000
     27 H39        -29.8640     6.6310    11.1020 ha         1 A1I       0.163500
     28 H40        -29.5740     8.4490    10.9040 ha         1 A1I       0.163500
     29 H45        -25.5670    13.2760     2.6560 ha         1 A1I       0.154000
     30 H30        -32.1310    11.9620     5.5570 h1         1 A1I       0.054367
     31 H31        -30.9160    12.1670     4.2790 h1         1 A1I       0.054367
     32 H32        -32.0230    10.7730     4.2660 h1         1 A1I       0.054367
     33 H33        -28.9770    10.8510     7.2370 h1         1 A1I       0.061200
     34 H34        -29.1540    12.2680     6.2120 h1         1 A1I       0.061200
     35 H27        -30.4220    13.3260     9.4890 hn         1 A1I       0.404000
     36 H28        -29.3130    12.1690     9.4200 hn         1 A1I       0.404000
     37 H37        -33.9880     8.7480    10.3860 ha         1 A1I       0.115000
     38 H38        -30.0420     9.6450     8.8810 ha         1 A1I       0.112000
     39 H41        -31.7630     5.5970     9.8610 hc         1 A1I       0.043033
     40 H42        -33.0190     6.3660    10.8430 hc         1 A1I       0.043033
     41 H43        -32.9730     6.6240     9.0910 hc         1 A1I       0.043033
     42 H44        -26.7440    10.4710     5.7080 ha         1 A1I       0.156500
     43 H46        -29.4000    11.3270     2.3750 ha         1 A1I       0.156500
     44 N2         -30.4490    10.6500     5.7140 n3         1 A1I      -0.717500
     45 F21        -24.8620    12.0940     4.8950 f          1 A1I      -0.166000
@<TRIPOS>BOND
     1     1     2 1   
     2     1    10 1   
     3     1    11 1   
     4     1    24 1   
     5     2     3 ar  
     6     2    13 ar  
     7     3     4 ar  
     8     3    25 1   
     9     4    12 ar  
    10     4    26 1   
    11     5    12 ar  
    12     5    13 ar  
    13     5    14 1   
    14     6    14 2   
    15     6    27 1   
    16     6    28 1   
    17     7     8 ar  
    18     7    20 ar  
    19     7    45 1   
    20     8    21 ar  
    21     8    29 1   
    22     9    30 1   
    23     9    31 1   
    24     9    32 1   
    25     9    44 1   
    26    10    33 1   
    27    10    34 1   
    28    10    44 1   
    29    11    35 1   
    30    11    36 1   
    31    12    37 1   
    32    13    38 1   
    33    14    15 1   
    34    15    39 1   
    35    15    40 1   
    36    15    41 1   
    37    16    17 2   
    38    16    18 2   
    39    16    19 1   
    40    16    44 1   
    41    19    20 ar  
    42    19    23 ar  
    43    20    42 1   
    44    21    22 1   
    45    21    23 ar  
    46    23    43 1   
@<TRIPOS>SUBSTRUCTURE
     1 A1I         1 TEMP              0 ****  ****    0 ROOT
