@<TRIPOS>MOLECULE
A1I
   94    97     1     0     0
SMALL
No Charge or Current Charge


@<TRIPOS>ATOM
      1 C4          28.7500   -16.6950    -5.3620 c5         1 A1I      -0.035500
      2 C5          28.0260   -16.4200    -6.7220 c5         1 A1I      -0.041000
      3 C6          28.5420   -15.0720    -7.3060 c6         1 A1I      -0.064400
      4 C7          27.9900   -17.9630    -4.8610 c5         1 A1I      -0.070400
      5 C8          26.4960   -17.6480    -5.2300 c5         1 A1I      -0.072400
      6 C10         28.2430   -17.5440    -7.7990 c3         1 A1I      -0.077100
      7 C13         24.0750   -15.7280    -6.1360 cx         1 A1I      -0.122700
      8 C15         23.7150   -16.8360    -8.9810 c3         1 A1I      -0.072400
      9 C17         22.2650   -17.6780   -11.0210 c3         1 A1I       0.184000
     10 C21         24.0030   -14.4130    -5.3870 cx         1 A1I      -0.119700
     11 C22         23.5690   -14.3060    -3.9190 c3         1 A1I      -0.039400
     12 C24         22.0670   -15.2020    -1.9370 c3         1 A1I       0.182000
     13 C26         23.2210   -15.1640    -0.9060 c3         1 A1I      -0.121100
     14 C28         32.4080   -18.0520    -5.1650 ce         1 A1I      -0.155000
     15 C1          30.0720   -15.1220    -7.5810 c6         1 A1I      -0.070400
     16 C12         25.2820   -16.0610    -7.0250 c3         1 A1I      -0.015700
     17 C14         24.9210   -17.1650    -8.0660 c3         1 A1I      -0.071400
     18 C16         23.5020   -17.8930   -10.0970 c3         1 A1I      -0.060400
     19 C18         22.1710   -18.8240   -12.0550 c3         1 A1I      -0.121100
     20 C19         22.3010   -16.3120   -11.7460 c3         1 A1I      -0.121100
     21 C2          30.8950   -15.5880    -6.3450 c6         1 A1I      -0.042200
     22 C23         22.5800   -15.3900    -3.3970 c3         1 A1I      -0.062400
     23 C25         21.0720   -16.3280    -1.5770 c3         1 A1I      -0.121100
     24 C29         33.0730   -19.2110    -4.8720 cf         1 A1I      -0.072200
     25 C3          30.2700   -16.7850    -5.6120 c2         1 A1I      -0.079400
     26 C30         34.6160   -19.2470    -4.9270 c6         1 A1I      -0.030200
     27 C31         35.2460   -19.9330    -3.6880 c6         1 A1I       0.175300
     28 C32         34.5900   -21.3090    -3.4330 c6         1 A1I      -0.107400
     29 C33         33.0560   -21.1950    -3.2730 c6         1 A1I       0.213500
     30 C34         32.4360   -20.4810    -4.5020 cf         1 A1I      -0.116200
     31 C35         31.4010   -20.9980    -5.2130 c2         1 A1I      -0.304000
     32 C38         23.0410   -14.6890    -6.5220 cx         1 A1I      -0.124400
     33 C9          26.5540   -16.3530    -6.1230 c5         1 A1I      -0.053700
     34 O20         21.0790   -17.7240   -10.2270 oh         1 A1I      -0.659000
     35 O27         21.3580   -13.9650    -1.8500 oh         1 A1I      -0.660000
     36 O36         32.5170   -22.4980    -3.0220 oh         1 A1I      -0.658000
     37 O37         35.1250   -19.0950    -2.5310 oh         1 A1I      -0.656000
     38 H4          28.5900   -15.8730    -4.6530 hc         1 A1I       0.052700
     39 H6B         28.3290   -14.2570    -6.6010 hc         1 A1I       0.040200
     40 H6A         28.0020   -14.8240    -8.2300 hc         1 A1I       0.040200
     41 H7A         28.3220   -18.8760    -5.3670 hc         1 A1I       0.043200
     42 H7B         28.1230   -18.1250    -3.7850 hc         1 A1I       0.043200
     43 H8A         26.0470   -18.5000    -5.7500 hc         1 A1I       0.041700
     44 H8B         25.8880   -17.4780    -4.3340 hc         1 A1I       0.041700
     45 H10C        27.9820   -17.1920    -8.8030 hc         1 A1I       0.034033
     46 H10A        29.2880   -17.8720    -7.8470 hc         1 A1I       0.034033
     47 H10B        27.6440   -18.4410    -7.6050 hc         1 A1I       0.034033
     48 H13         23.6920   -16.6150    -5.6380 hc         1 A1I       0.075700
     49 H15B        22.8040   -16.7710    -8.3750 hc         1 A1I       0.046200
     50 H15A        23.8780   -15.8510    -9.4340 hc         1 A1I       0.046200
     51 H21         24.7810   -13.6870    -5.6110 hc         1 A1I       0.069700
     52 H22A        24.4740   -14.3330    -3.3010 hc         1 A1I       0.047200
     53 H22B        23.1250   -13.3150    -3.7650 hc         1 A1I       0.047200
     54 H26B        22.8310   -15.1170     0.1180 hc         1 A1I       0.040033
     55 H26A        23.8430   -16.0630    -0.9890 hc         1 A1I       0.040033
     56 H26C        23.8640   -14.2890    -1.0550 hc         1 A1I       0.040033
     57 H28         33.0130   -17.1890    -5.4400 ha         1 A1I       0.171000
     58 H1B         30.4210   -14.1310    -7.9000 hc         1 A1I       0.039700
     59 H1A         30.2770   -15.7920    -8.4260 hc         1 A1I       0.039700
     60 H11         30.4220   -18.6210    -4.5470 ha         1 A1I       0.175000
     61 H12         25.5160   -15.1610    -7.6070 hc         1 A1I       0.045700
     62 H14A        25.7770   -17.3380    -8.7210 hc         1 A1I       0.038700
     63 H14B        24.7180   -18.1100    -7.5510 hc         1 A1I       0.038700
     64 H16A        24.4040   -17.9280   -10.7200 hc         1 A1I       0.042700
     65 H16B        23.4200   -18.8810    -9.6250 hc         1 A1I       0.042700
     66 H18C        21.2880   -18.7100   -12.6950 hc         1 A1I       0.039867
     67 H18A        23.0570   -18.8370   -12.7010 hc         1 A1I       0.039867
     68 H18B        22.1030   -19.7990   -11.5550 hc         1 A1I       0.039867
     69 H19C        21.4670   -16.2190   -12.4520 hc         1 A1I       0.039867
     70 H19A        22.2280   -15.4790   -11.0370 hc         1 A1I       0.039867
     71 H19B        23.2350   -16.1980   -12.3110 hc         1 A1I       0.039867
     72 H2A         31.9170   -15.8020    -6.6760 hc         1 A1I       0.045700
     73 H2B         30.9720   -14.7530    -5.6350 hc         1 A1I       0.045700
     74 H23A        21.7100   -15.4300    -4.0630 hc         1 A1I       0.046700
     75 H23B        23.0680   -16.3700    -3.4620 hc         1 A1I       0.046700
     76 H25B        20.6740   -16.1970    -0.5630 hc         1 A1I       0.040033
     77 H25C        20.2250   -16.3430    -2.2740 hc         1 A1I       0.040033
     78 H25A        21.5630   -17.3080    -1.6220 hc         1 A1I       0.040033
     79 H30A        34.9180   -19.7920    -5.8310 hc         1 A1I       0.056200
     80 H30B        35.0280   -18.2350    -5.0330 hc         1 A1I       0.056200
     81 H31         36.3130   -20.0960    -3.9010 h1         1 A1I       0.032700
     82 H32B        34.8190   -21.9790    -4.2720 hc         1 A1I       0.056700
     83 H32A        35.0280   -21.7730    -2.5390 hc         1 A1I       0.056700
     84 H33         32.8580   -20.5590    -2.3970 h1         1 A1I       0.047700
     85 H35A        30.9320   -21.9480    -4.9610 ha         1 A1I       0.168500
     86 H35B        31.0100   -20.4780    -6.0880 ha         1 A1I       0.168500
     87 H38A        23.1890   -14.1400    -7.4490 hc         1 A1I       0.071700
     88 H38B        22.0010   -14.9000    -6.2880 hc         1 A1I       0.071700
     89 H9          26.5420   -15.4960    -5.4380 hc         1 A1I       0.047700
     90 H20         20.3240   -17.5840   -10.8370 ho         1 A1I       0.437000
     91 H27         21.0440   -13.8830    -0.9240 ho         1 A1I       0.437000
     92 H36         31.5580   -22.3660    -2.8640 ho         1 A1I       0.445000
     93 H37         35.6800   -19.4990    -1.8300 ho         1 A1I       0.439000
     94 C11         30.9500   -17.8440    -5.0940 ce         1 A1I      -0.189000
@<TRIPOS>BOND
     1     1     2 1   
     2     1     4 1   
     3     1    25 1   
     4     1    38 1   
     5     2     3 1   
     6     2     6 1   
     7     2    33 1   
     8     3    15 1   
     9     3    39 1   
    10     3    40 1   
    11     4     5 1   
    12     4    41 1   
    13     4    42 1   
    14     5    33 1   
    15     5    43 1   
    16     5    44 1   
    17     6    45 1   
    18     6    46 1   
    19     6    47 1   
    20     7    10 1   
    21     7    16 1   
    22     7    32 1   
    23     7    48 1   
    24     8    17 1   
    25     8    18 1   
    26     8    49 1   
    27     8    50 1   
    28     9    18 1   
    29     9    19 1   
    30     9    20 1   
    31     9    34 1   
    32    10    11 1   
    33    10    32 1   
    34    10    51 1   
    35    11    22 1   
    36    11    52 1   
    37    11    53 1   
    38    12    13 1   
    39    12    22 1   
    40    12    23 1   
    41    12    35 1   
    42    13    54 1   
    43    13    55 1   
    44    13    56 1   
    45    14    24 2   
    46    14    57 1   
    47    14    94 1   
    48    15    21 1   
    49    15    58 1   
    50    15    59 1   
    51    16    17 1   
    52    16    33 1   
    53    16    61 1   
    54    17    62 1   
    55    17    63 1   
    56    18    64 1   
    57    18    65 1   
    58    19    66 1   
    59    19    67 1   
    60    19    68 1   
    61    20    69 1   
    62    20    70 1   
    63    20    71 1   
    64    21    25 1   
    65    21    72 1   
    66    21    73 1   
    67    22    74 1   
    68    22    75 1   
    69    23    76 1   
    70    23    77 1   
    71    23    78 1   
    72    24    26 1   
    73    24    30 1   
    74    25    94 2   
    75    26    27 1   
    76    26    79 1   
    77    26    80 1   
    78    27    28 1   
    79    27    37 1   
    80    27    81 1   
    81    28    29 1   
    82    28    82 1   
    83    28    83 1   
    84    29    30 1   
    85    29    36 1   
    86    29    84 1   
    87    30    31 2   
    88    31    85 1   
    89    31    86 1   
    90    32    87 1   
    91    32    88 1   
    92    33    89 1   
    93    34    90 1   
    94    35    91 1   
    95    36    92 1   
    96    37    93 1   
    97    60    94 1   
@<TRIPOS>SUBSTRUCTURE
     1 A1I         1 TEMP              0 ****  ****    0 ROOT
