@<TRIPOS>MOLECULE
A1I
   29    29     1     0     0
SMALL
abcg2


@<TRIPOS>ATOM
      1 C2          -9.1080    11.1090   -12.9440 c3         1 A1I       0.114800
      2 C3          -8.5370    12.0460   -14.0050 c3         1 A1I       0.150300
      3 C5          -8.3700    13.4790   -13.5240 c3         1 A1I       0.251800
      4 O9          -7.3940    13.1750    -9.8850 o          1 A1I      -0.547500
      5 C10         -7.1400    15.6370   -10.6450 ca         1 A1I      -0.331500
      6 C11         -6.2930    15.8280    -9.5610 ca         1 A1I       0.015000
      7 C12         -5.7020    17.0650    -9.3550 ca         1 A1I      -0.149000
      8 C13         -5.9600    18.1130   -10.2270 ca         1 A1I      -0.032000
      9 C14         -6.8010    17.9320   -11.3180 ca         1 A1I      -0.173000
     10 C15         -7.3790    16.6960   -11.5100 ca         1 A1I       0.265000
     11 N1         -10.4420    11.5220   -12.5400 n8         1 A1I      -1.006200
     12 O4          -7.2620    11.6150   -14.4360 oh         1 A1I      -0.668000
     13 N6          -7.5080    13.5710   -12.3580 n7         1 A1I      -0.957300
     14 S7          -7.9490    14.0730   -10.8830 sy         1 A1I       1.207600
     15 O8          -9.3840    14.3170   -10.9030 o          1 A1I      -0.547500
     16 F16         -8.1750    16.5100   -12.5660 f          1 A1I      -0.165000
     17 H22         -9.1810    10.1120   -13.3870 h1         1 A1I       0.033700
     18 H21         -8.3920    11.0260   -12.1140 h1         1 A1I       0.033700
     19 H20         -9.2490    12.0810   -14.8430 h1         1 A1I       0.055700
     20 H24         -7.9530    14.0860   -14.3310 h1         1 A1I       0.072200
     21 H25         -9.3440    13.9010   -13.2890 h1         1 A1I       0.072200
     22 H27         -6.0930    15.0130    -8.8800 ha         1 A1I       0.145000
     23 H28         -5.0420    17.2090    -8.5110 ha         1 A1I       0.125000
     24 H29         -5.5040    19.0800   -10.0660 ha         1 A1I       0.121000
     25 H30         -7.0070    18.7380   -12.0100 ha         1 A1I       0.137000
     26 H18        -10.8940    10.7620   -12.0490 hn         1 A1I       0.408500
     27 H19        -10.3800    12.2810   -11.8740 hn         1 A1I       0.408500
     28 H23         -7.3260    10.6990   -14.7240 ho         1 A1I       0.446000
     29 H26         -6.5650    13.2090   -12.4310 hn         1 A1I       0.513000
@<TRIPOS>BOND
     1     1     2 1   
     2     1    11 1   
     3     1    17 1   
     4     1    18 1   
     5     2     3 1   
     6     2    12 1   
     7     2    19 1   
     8     3    13 1   
     9     3    20 1   
    10     3    21 1   
    11     4    14 2   
    12     5     6 ar  
    13     5    10 ar  
    14     5    14 1   
    15     6     7 ar  
    16     6    22 1   
    17     7     8 ar  
    18     7    23 1   
    19     8     9 ar  
    20     8    24 1   
    21     9    10 ar  
    22     9    25 1   
    23    10    16 1   
    24    11    26 1   
    25    11    27 1   
    26    12    28 1   
    27    13    14 1   
    28    13    29 1   
    29    14    15 2   
@<TRIPOS>SUBSTRUCTURE
     1 A1I         1 TEMP              0 ****  ****    0 ROOT
