@<TRIPOS>MOLECULE
A1I
   30    30     1     0     0
SMALL
abcg2


@<TRIPOS>ATOM
      1 C1         -29.2960    13.8300     7.1290 c3         1 A1I      -0.089100
      2 C2         -30.1920    13.1840     8.1750 c3         1 A1I       0.160500
      3 C6         -31.7060     9.8800     8.5010 ca         1 A1I       0.097100
      4 C7         -30.8770     8.9500     9.1330 ca         1 A1I      -0.086300
      5 C8         -29.7480     9.3990    10.0160 c3         1 A1I      -0.041300
      6 C10        -32.2150     7.1830     8.1660 ca         1 A1I      -0.109000
      7 C11        -33.0370     8.1250     7.5660 ca         1 A1I      -0.105500
      8 C12        -32.7970     9.4880     7.7220 ca         1 A1I      -0.086300
      9 C13        -33.7020    10.5080     7.0960 c3         1 A1I      -0.041300
     10 N3         -29.5440    13.2350     9.4770 n8         1 A1I      -0.993200
     11 C4         -30.5670    11.7790     7.7210 c3         1 A1I       0.120600
     12 O5         -31.4610    11.2130     8.6750 os         1 A1I      -0.376100
     13 C9         -31.1490     7.5970     8.9510 ca         1 A1I      -0.105500
     14 H18        -29.0490    14.8520     7.4150 hc         1 A1I       0.040367
     15 H19        -28.3600    13.2760     7.0220 hc         1 A1I       0.040367
     16 H20        -29.7800    13.8570     6.1530 hc         1 A1I       0.040367
     17 H14        -31.1150    13.7690     8.2460 h1         1 A1I       0.071700
     18 H25        -30.1060    10.0170    10.8400 hc         1 A1I       0.043033
     19 H23        -29.2330     8.5400    10.4440 hc         1 A1I       0.043033
     20 H24        -29.0060     9.9900     9.4760 hc         1 A1I       0.043033
     21 H27        -32.4130     6.1270     8.0330 ha         1 A1I       0.115000
     22 H28        -33.8790     7.8030     6.9660 ha         1 A1I       0.113000
     23 H29        -34.1040    11.2010     7.8360 hc         1 A1I       0.043033
     24 H30        -33.1880    11.1090     6.3440 hc         1 A1I       0.043033
     25 H31        -34.5440    10.0230     6.6030 hc         1 A1I       0.043033
     26 H17        -30.1240    12.7770    10.1700 hn         1 A1I       0.397500
     27 H15        -28.6800    12.7030     9.4450 hn         1 A1I       0.397500
     28 H21        -31.0390    11.8110     6.7320 h1         1 A1I       0.033200
     29 H22        -29.6590    11.1680     7.6350 h1         1 A1I       0.033200
     30 H26        -30.5170     6.8610     9.4340 ha         1 A1I       0.113000
@<TRIPOS>BOND
     1     1     2 1   
     2     1    14 1   
     3     1    15 1   
     4     1    16 1   
     5     2    10 1   
     6     2    11 1   
     7     2    17 1   
     8     3     4 ar  
     9     3     8 ar  
    10     3    12 1   
    11     4     5 1   
    12     4    13 ar  
    13     5    18 1   
    14     5    19 1   
    15     5    20 1   
    16     6     7 ar  
    17     6    13 ar  
    18     6    21 1   
    19     7     8 ar  
    20     7    22 1   
    21     8     9 1   
    22     9    23 1   
    23     9    24 1   
    24     9    25 1   
    25    10    26 1   
    26    10    27 1   
    27    11    12 1   
    28    11    28 1   
    29    11    29 1   
    30    13    30 1   
@<TRIPOS>SUBSTRUCTURE
     1 A1I         1 TEMP              0 ****  ****    0 ROOT
