@<TRIPOS>MOLECULE
A1I
   31    31     1     0     0
SMALL
No Charge or Current Charge


@<TRIPOS>ATOM
      1 C1         -28.5460    14.3920     8.8220 c3         1 A1I      -0.087100
      2 C2         -29.8630    13.9400     8.1570 c3         1 A1I       0.163500
      3 C10        -30.0160    11.6730     3.7250 ca         1 A1I      -0.006000
      4 C11        -29.6830    12.2730     2.4980 ca         1 A1I      -0.136500
      5 C12        -28.3350    12.4670     2.1420 ca         1 A1I      -0.021300
      6 C13        -27.9790    13.1210     0.8160 c3         1 A1I      -0.057800
      7 C14        -27.3210    12.0590     3.0270 ca         1 A1I      -0.136500
      8 C15        -27.6470    11.4580     4.2560 ca         1 A1I      -0.006000
      9 N3         -30.6880    13.1880     9.1410 n8         1 A1I      -1.019200
     10 C4         -29.6290    13.1000     6.8650 c3         1 A1I       0.202800
     11 N5         -29.1470    11.7620     7.2440 n7         1 A1I      -0.882300
     12 S6         -29.4070    10.5030     6.1900 sy         1 A1I       1.145600
     13 O7         -30.8420    10.2200     6.2640 o          1 A1I      -0.550000
     14 O8         -28.3870     9.5070     6.5260 o          1 A1I      -0.550000
     15 C9         -28.9970    11.2620     4.6080 ca         1 A1I      -0.276500
     16 H22        -28.7480    15.0240     9.6950 hc         1 A1I       0.043367
     17 H20        -27.9510    13.5310     9.1510 hc         1 A1I       0.043367
     18 H21        -27.9420    14.9750     8.1170 hc         1 A1I       0.043367
     19 H16        -30.4180    14.8470     7.8820 h1         1 A1I       0.021700
     20 H27        -30.4760    12.5880     1.8240 ha         1 A1I       0.116000
     21 H29        -27.9070    14.2090     0.9250 hc         1 A1I       0.048033
     22 H30        -27.0170    12.7570     0.4360 hc         1 A1I       0.048033
     23 H28        -28.7350    12.9090     0.0500 hc         1 A1I       0.048033
     24 H31        -26.2760    12.2090     2.7660 ha         1 A1I       0.116000
     25 H32        -26.8500    11.1530     4.9330 ha         1 A1I       0.135000
     26 H19        -30.7250    13.7230    10.0170 hn         1 A1I       0.403000
     27 H17        -31.6670    13.1920     8.8270 hn         1 A1I       0.403000
     28 H24        -28.9230    13.6110     6.1960 h1         1 A1I       0.049700
     29 H23        -30.5930    13.0300     6.3400 h1         1 A1I       0.049700
     30 H25        -29.7370    11.4860     8.0300 hn         1 A1I       0.510000
     31 H26        -31.0650    11.5320     3.9830 ha         1 A1I       0.135000
@<TRIPOS>BOND
     1     1     2 1   
     2     1    16 1   
     3     1    17 1   
     4     1    18 1   
     5     2     9 1   
     6     2    10 1   
     7     2    19 1   
     8     3     4 ar  
     9     3    15 ar  
    10     3    31 1   
    11     4     5 ar  
    12     4    20 1   
    13     5     6 1   
    14     5     7 ar  
    15     6    21 1   
    16     6    22 1   
    17     6    23 1   
    18     7     8 ar  
    19     7    24 1   
    20     8    15 ar  
    21     8    25 1   
    22     9    26 1   
    23     9    27 1   
    24    10    11 1   
    25    10    28 1   
    26    10    29 1   
    27    11    12 1   
    28    11    30 1   
    29    12    13 2   
    30    12    14 2   
    31    12    15 1   
@<TRIPOS>SUBSTRUCTURE
     1 A1I         1 TEMP              0 ****  ****    0 ROOT
