@<TRIPOS>MOLECULE
A1I
   35    36     1     0     0
SMALL
No Charge or Current Charge


@<TRIPOS>ATOM
      1 C2         -29.8450    13.3030     8.2300 c3         1 A1I       0.222800
      2 C3         -29.8660    12.6570     6.8100 c3         1 A1I       0.189800
      3 N4         -30.4650    11.2960     6.8440 n7         1 A1I      -0.865300
      4 C8         -29.0740    10.8010     4.5880 ca         1 A1I      -0.254500
      5 C10        -26.6880    10.3250     4.3640 ca         1 A1I       0.187000
      6 C12        -26.5760    11.2960     3.3580 ca         1 A1I      -0.156000
      7 C13        -27.7120    12.0200     2.9670 ca         1 A1I       0.187000
      8 C15        -28.9570    11.7810     3.5740 ca         1 A1I      -0.084000
      9 C16        -29.2600    14.7150     8.2310 ca         1 A1I      -0.104300
     10 C19        -28.1990    17.3330     8.2160 ca         1 A1I      -0.103000
     11 C21        -30.0560    15.8110     8.6220 ca         1 A1I      -0.095000
     12 N1         -29.1490    12.4400     9.2070 n8         1 A1I      -0.997200
     13 S5         -30.6610    10.4920     5.3950 sy         1 A1I       1.150600
     14 O6         -30.7450     9.0740     5.7520 o          1 A1I      -0.522000
     15 O7         -31.7340    11.1980     4.6930 o          1 A1I      -0.522000
     16 C9         -27.9260    10.0750     4.9800 ca         1 A1I      -0.084000
     17 F11        -25.5950     9.6280     4.7460 f          1 A1I      -0.164500
     18 F14        -27.6070    12.9580     2.0000 f          1 A1I      -0.164500
     19 C17        -27.9240    14.9440     7.8350 ca         1 A1I      -0.095000
     20 C18        -27.3970    16.2470     7.8270 ca         1 A1I      -0.113500
     21 C20        -29.5280    17.1140     8.6140 ca         1 A1I      -0.113500
     22 H25        -30.8900    13.3630     8.5630 h1         1 A1I       0.017700
     23 H27        -28.8340    12.6180     6.4380 h1         1 A1I       0.067200
     24 H26        -30.4320    13.3180     6.1370 h1         1 A1I       0.067200
     25 H28        -31.4340    11.3640     7.1490 hn         1 A1I       0.475000
     26 H30        -25.6170    11.4860     2.8860 ha         1 A1I       0.155000
     27 H31        -29.8210    12.3590     3.2530 ha         1 A1I       0.158500
     28 H34        -27.7910    18.3420     8.2090 ha         1 A1I       0.114000
     29 H36        -31.0880    15.6560     8.9320 ha         1 A1I       0.121000
     30 H22        -29.4870    12.6700    10.1470 hn         1 A1I       0.409500
     31 H23        -29.4860    11.4830     9.0450 hn         1 A1I       0.409500
     32 H29        -27.9880     9.3220     5.7640 ha         1 A1I       0.158500
     33 H32        -27.2920    14.1100     7.5380 ha         1 A1I       0.121000
     34 H33        -26.3670    16.4140     7.5200 ha         1 A1I       0.114500
     35 H35        -30.1500    17.9540     8.9160 ha         1 A1I       0.114500
@<TRIPOS>BOND
     1     1     2 1   
     2     1     9 1   
     3     1    12 1   
     4     1    22 1   
     5     2     3 1   
     6     2    23 1   
     7     2    24 1   
     8     3    13 1   
     9     3    25 1   
    10     4     8 ar  
    11     4    13 1   
    12     4    16 ar  
    13     5     6 ar  
    14     5    16 ar  
    15     5    17 1   
    16     6     7 ar  
    17     6    26 1   
    18     7     8 ar  
    19     7    18 1   
    20     8    27 1   
    21     9    11 ar  
    22     9    19 ar  
    23    10    20 ar  
    24    10    21 ar  
    25    10    28 1   
    26    11    21 ar  
    27    11    29 1   
    28    12    30 1   
    29    12    31 1   
    30    13    14 2   
    31    13    15 2   
    32    16    32 1   
    33    19    20 ar  
    34    19    33 1   
    35    20    34 1   
    36    21    35 1   
@<TRIPOS>SUBSTRUCTURE
     1 A1I         1 TEMP              0 ****  ****    0 ROOT
