@<TRIPOS>MOLECULE
A1I
   30    31     1     0     0
SMALL
abcg2


@<TRIPOS>ATOM
      1 C1         -17.9100     0.8440    22.6100 c3         1 A1I      -0.028100
      2 C2         -16.9490     1.0380    23.7890 c6         1 A1I      -0.056700
      3 C3         -16.0960     2.2960    23.6470 c6         1 A1I      -0.111400
      4 C6         -15.0430     0.0280    25.0930 c6         1 A1I       0.148300
      5 C7         -16.0420    -0.1790    23.9560 c6         1 A1I      -0.111400
      6 C8         -18.9240     1.9460    22.4760 ca         1 A1I      -0.076300
      7 C10        -20.9170     3.0630    23.2780 ca         1 A1I      -0.109000
      8 C11        -20.8030     4.0180    22.2750 ca         1 A1I      -0.112000
      9 C12        -19.7520     3.9370    21.3710 ca         1 A1I      -0.109000
     10 C13        -18.8220     2.9090    21.4750 ca         1 A1I      -0.108500
     11 C4         -15.0910     2.4130    24.7920 c6         1 A1I       0.148300
     12 N5         -14.2490     1.2400    24.9680 n7         1 A1I      -0.843400
     13 C9         -19.9860     2.0390    23.3760 ca         1 A1I      -0.108500
     14 H17        -18.4280    -0.1110    22.7400 hc         1 A1I       0.046700
     15 H16        -17.3280     0.7610    21.6880 hc         1 A1I       0.046700
     16 H18        -17.5500     1.1370    24.7030 hc         1 A1I       0.051700
     17 H20        -15.5570     2.2620    22.6920 hc         1 A1I       0.043700
     18 H19        -16.7240     3.1910    23.6180 hc         1 A1I       0.043700
     19 H24        -15.5870     0.0770    26.0430 h1         1 A1I       0.051200
     20 H23        -14.3680    -0.8270    25.1660 h1         1 A1I       0.051200
     21 H25        -16.6410    -1.0750    24.1430 hc         1 A1I       0.043700
     22 H26        -15.4960    -0.3560    23.0210 hc         1 A1I       0.043700
     23 H28        -21.7360     3.1160    23.9850 ha         1 A1I       0.111000
     24 H29        -21.5290     4.8170    22.1960 ha         1 A1I       0.112000
     25 H30        -19.6540     4.6720    20.5830 ha         1 A1I       0.111000
     26 H31        -18.0040     2.8520    20.7660 ha         1 A1I       0.109500
     27 H21        -14.4490     3.2840    24.6440 h1         1 A1I       0.051200
     28 H22        -15.6340     2.5840    25.7280 h1         1 A1I       0.051200
     29 H14        -13.6450     1.1510    24.1590 hn         1 A1I       0.400000
     30 H27        -20.0870     1.2980    24.1600 ha         1 A1I       0.109500
@<TRIPOS>BOND
     1     1     2 1   
     2     1     6 1   
     3     1    14 1   
     4     1    15 1   
     5     2     3 1   
     6     2     5 1   
     7     2    16 1   
     8     3    11 1   
     9     3    17 1   
    10     3    18 1   
    11     4     5 1   
    12     4    12 1   
    13     4    19 1   
    14     4    20 1   
    15     5    21 1   
    16     5    22 1   
    17     6    10 ar  
    18     6    13 ar  
    19     7     8 ar  
    20     7    13 ar  
    21     7    23 1   
    22     8     9 ar  
    23     8    24 1   
    24     9    10 ar  
    25     9    25 1   
    26    10    26 1   
    27    11    12 1   
    28    11    27 1   
    29    11    28 1   
    30    12    29 1   
    31    13    30 1   
@<TRIPOS>SUBSTRUCTURE
     1 A1I         1 TEMP              0 ****  ****    0 ROOT
