@<TRIPOS>MOLECULE
A1I
   27    28     1     0     0
SMALL
abcg2


@<TRIPOS>ATOM
      1 N4         -17.7520    -9.1430     5.7270 n7         1 A1I      -0.890300
      2 C5         -17.2430   -10.3820     5.1490 c3         1 A1I       0.242800
      3 C6         -16.2610   -11.1430     5.9970 cx         1 A1I      -0.181700
      4 C7         -16.0320   -12.5920     5.6910 cx         1 A1I      -0.120900
      5 C8         -16.7390   -12.1940     6.9490 cx         1 A1I      -0.120900
      6 C10        -18.2870   -10.4210     9.3730 ca         1 A1I      -0.019000
      7 C11        -17.5840   -10.6280    10.5520 ca         1 A1I      -0.127500
      8 C12        -16.4560    -9.8730    10.8350 ca         1 A1I      -0.061000
      9 C13        -16.0270    -8.8980     9.9410 ca         1 A1I      -0.127500
     10 C14        -16.7270    -8.6750     8.7670 ca         1 A1I      -0.019000
     11 O1         -19.2610    -7.7610     7.1120 o          1 A1I      -0.536000
     12 S2         -18.7720    -9.1270     7.0060 sy         1 A1I       1.161600
     13 O3         -19.7110   -10.2220     6.8200 o          1 A1I      -0.536000
     14 C9         -17.8460    -9.4500     8.4880 ca         1 A1I      -0.287500
     15 H15        -17.1180    -8.3520     5.7020 hn         1 A1I       0.485000
     16 H16        -18.0900   -11.0150     4.8830 h1         1 A1I       0.070200
     17 H17        -16.7750   -10.0850     4.2090 h1         1 A1I       0.070200
     18 H18        -15.3910   -10.5720     6.3050 hc         1 A1I       0.079700
     19 H20        -16.6200   -13.0380     4.8980 hc         1 A1I       0.077950
     20 H19        -15.0230   -12.9760     5.7620 hc         1 A1I       0.077950
     21 H22        -17.8050   -12.3780     7.0100 hc         1 A1I       0.077950
     22 H21        -16.2170   -12.3000     7.8910 hc         1 A1I       0.077950
     23 H23        -19.1600   -11.0190     9.1510 ha         1 A1I       0.126000
     24 H24        -17.9220   -11.3850    11.2480 ha         1 A1I       0.118000
     25 H25        -15.9080   -10.0410    11.7520 ha         1 A1I       0.117000
     26 H26        -15.1480    -8.3070    10.1610 ha         1 A1I       0.118000
     27 H27        -16.3870    -7.9110     8.0790 ha         1 A1I       0.126000
@<TRIPOS>BOND
     1     1     2 1   
     2     1    12 1   
     3     1    15 1   
     4     2     3 1   
     5     2    16 1   
     6     2    17 1   
     7     3     4 1   
     8     3     5 1   
     9     3    18 1   
    10     4     5 1   
    11     4    19 1   
    12     4    20 1   
    13     5    21 1   
    14     5    22 1   
    15     6     7 ar  
    16     6    14 ar  
    17     6    23 1   
    18     7     8 ar  
    19     7    24 1   
    20     8     9 ar  
    21     8    25 1   
    22     9    10 ar  
    23     9    26 1   
    24    10    14 ar  
    25    10    27 1   
    26    11    12 2   
    27    12    13 2   
    28    12    14 1   
@<TRIPOS>SUBSTRUCTURE
     1 A1I         1 TEMP              0 ****  ****    0 ROOT
