@<TRIPOS>MOLECULE
A1I
   30    30     1     0     0
SMALL
No Charge or Current Charge


@<TRIPOS>ATOM
      1 C1         -29.3500    14.0130     7.1040 c3         1 A1I      -0.089100
      2 C2         -30.2520    13.2670     8.1080 c3         1 A1I       0.160500
      3 C6         -31.6390     9.8250     8.5390 ca         1 A1I       0.097100
      4 C7         -30.8710     8.8190     9.1680 ca         1 A1I      -0.086300
      5 C8         -29.6650     9.1770    10.0310 c3         1 A1I      -0.041300
      6 C10        -32.3350     7.1240     8.2020 ca         1 A1I      -0.109000
      7 C11        -33.1020     8.1260     7.5880 ca         1 A1I      -0.105500
      8 C12        -32.7650     9.4830     7.7540 ca         1 A1I      -0.086300
      9 C13        -33.6190    10.5570     7.0850 c3         1 A1I      -0.041300
     10 N3         -29.7140    13.4180     9.4810 n8         1 A1I      -0.993200
     11 C4         -30.4460    11.7730     7.7210 c3         1 A1I       0.120600
     12 O5         -31.2930    11.1460     8.7040 os         1 A1I      -0.376100
     13 C9         -31.2260     7.4680     8.9910 ca         1 A1I      -0.105500
     14 H18        -29.2600    15.0720     7.3750 hc         1 A1I       0.040367
     15 H19        -28.3450    13.5750     7.0760 hc         1 A1I       0.040367
     16 H20        -29.7750    13.9590     6.0950 hc         1 A1I       0.040367
     17 H14        -31.2450    13.7400     8.0840 h1         1 A1I       0.071700
     18 H25        -29.9220     9.9440    10.7710 hc         1 A1I       0.043033
     19 H23        -29.2840     8.3070    10.5790 hc         1 A1I       0.043033
     20 H24        -28.8440     9.5650     9.4160 hc         1 A1I       0.043033
     21 H27        -32.6030     6.0780     8.0690 ha         1 A1I       0.115000
     22 H28        -33.9620     7.8460     6.9820 ha         1 A1I       0.113000
     23 H29        -33.7840    11.4110     7.7530 hc         1 A1I       0.043033
     24 H30        -33.1390    10.9290     6.1730 hc         1 A1I       0.043033
     25 H31        -34.6060    10.1700     6.8050 hc         1 A1I       0.043033
     26 H17        -30.2550    12.7900    10.0880 hn         1 A1I       0.397500
     27 H15        -28.7720    13.0120     9.5110 hn         1 A1I       0.397500
     28 H21        -30.9010    11.7130     6.7240 h1         1 A1I       0.033200
     29 H22        -29.4700    11.2700     7.6790 h1         1 A1I       0.033200
     30 H26        -30.6420     6.6810     9.4640 ha         1 A1I       0.113000
@<TRIPOS>BOND
     1     1     2 1   
     2     1    14 1   
     3     1    15 1   
     4     1    16 1   
     5     2    10 1   
     6     2    11 1   
     7     2    17 1   
     8     3     4 ar  
     9     3     8 ar  
    10     3    12 1   
    11     4     5 1   
    12     4    13 ar  
    13     5    18 1   
    14     5    19 1   
    15     5    20 1   
    16     6     7 ar  
    17     6    13 ar  
    18     6    21 1   
    19     7     8 ar  
    20     7    22 1   
    21     8     9 1   
    22     9    23 1   
    23     9    24 1   
    24     9    25 1   
    25    10    26 1   
    26    10    27 1   
    27    11    12 1   
    28    11    28 1   
    29    11    29 1   
    30    13    30 1   
@<TRIPOS>SUBSTRUCTURE
     1 A1I         1 TEMP              0 ****  ****    0 ROOT
