@<TRIPOS>MOLECULE
A1I
   30    31     1     0     0
SMALL
No Charge or Current Charge


@<TRIPOS>ATOM
      1 C1         -17.9240     0.8330    22.6110 c3         1 A1I      -0.028100
      2 C2         -16.9370     1.0170    23.8030 c6         1 A1I      -0.056700
      3 C3         -16.0830     2.3090    23.6700 c6         1 A1I      -0.111400
      4 C6         -14.9960    -0.0090    25.1220 c6         1 A1I       0.148300
      5 C7         -16.0000    -0.2120    23.9600 c6         1 A1I      -0.111400
      6 C8         -18.9450     1.9580    22.4790 ca         1 A1I      -0.076300
      7 C10        -20.9560     3.0920    23.2720 ca         1 A1I      -0.109000
      8 C11        -20.8320     4.0410    22.2440 ca         1 A1I      -0.112000
      9 C12        -19.7670     3.9510    21.3320 ca         1 A1I      -0.109000
     10 C13        -18.8260     2.9130    21.4490 ca         1 A1I      -0.108500
     11 C4         -15.0750     2.4390    24.8380 c6         1 A1I       0.148300
     12 N5         -14.2130     1.2360    24.9350 n7         1 A1I      -0.843400
     13 C9         -20.0160     2.0540    23.3890 ca         1 A1I      -0.108500
     14 H17        -18.4610    -0.1160    22.7300 hc         1 A1I       0.046700
     15 H16        -17.3570     0.7300    21.6780 hc         1 A1I       0.046700
     16 H18        -17.5520     1.0970    24.7100 hc         1 A1I       0.051700
     17 H20        -15.5400     2.3050    22.7150 hc         1 A1I       0.043700
     18 H19        -16.7320     3.1940    23.6560 hc         1 A1I       0.043700
     19 H24        -15.5430     0.0380    26.0760 h1         1 A1I       0.051200
     20 H23        -14.3140    -0.8720    25.1750 h1         1 A1I       0.051200
     21 H25        -16.5930    -1.1170    24.1460 hc         1 A1I       0.043700
     22 H26        -15.4480    -0.3870    23.0260 hc         1 A1I       0.043700
     23 H28        -21.7800     3.1610    23.9790 ha         1 A1I       0.111000
     24 H29        -21.5600     4.8450    22.1540 ha         1 A1I       0.112000
     25 H30        -19.6690     4.6860    20.5360 ha         1 A1I       0.111000
     26 H31        -18.0030     2.8530    20.7400 ha         1 A1I       0.109500
     27 H21        -14.4500     3.3320    24.6880 h1         1 A1I       0.051200
     28 H22        -15.6240     2.5760    25.7830 h1         1 A1I       0.051200
     29 H14        -13.6850     1.1520    24.0580 hn         1 A1I       0.400000
     30 H27        -20.1180     1.3230    24.1880 ha         1 A1I       0.109500
@<TRIPOS>BOND
     1     1     2 1   
     2     1     6 1   
     3     1    14 1   
     4     1    15 1   
     5     2     3 1   
     6     2     5 1   
     7     2    16 1   
     8     3    11 1   
     9     3    17 1   
    10     3    18 1   
    11     4     5 1   
    12     4    12 1   
    13     4    19 1   
    14     4    20 1   
    15     5    21 1   
    16     5    22 1   
    17     6    10 ar  
    18     6    13 ar  
    19     7     8 ar  
    20     7    13 ar  
    21     7    23 1   
    22     8     9 ar  
    23     8    24 1   
    24     9    10 ar  
    25     9    25 1   
    26    10    26 1   
    27    11    12 1   
    28    11    27 1   
    29    11    28 1   
    30    12    29 1   
    31    13    30 1   
@<TRIPOS>SUBSTRUCTURE
     1 A1I         1 TEMP              0 ****  ****    0 ROOT
