@<TRIPOS>MOLECULE
A1I
   42    44     1     0     0
SMALL
No Charge or Current Charge


@<TRIPOS>ATOM
      1 C10        -14.6870     8.1000    -7.2230 cc         1 A1I       0.484300
      2 C17        -14.9620     7.7640    -3.3500 c6         1 A1I      -0.079700
      3 C21        -13.3860     6.4090    -1.8620 c6         1 A1I       0.155600
      4 C22        -13.5720     7.0680    -3.2490 c6         1 A1I      -0.112400
      5 C02        -14.4720    11.9080    -7.4990 cd         1 A1I      -0.204400
      6 C03        -14.7800    10.6700    -6.9730 cc         1 A1I      -0.091000
      7 C04        -14.4180     9.4620    -7.6780 cc         1 A1I      -0.254800
      8 C05        -13.8010     9.5930    -8.9120 cd         1 A1I       0.009600
      9 N06        -13.4760    10.8310    -9.4650 n          1 A1I      -0.266000
     10 C07        -12.7960    10.8990   -10.7790 c3         1 A1I       0.075300
     11 C08        -13.7740    12.0450    -8.8090 c          1 A1I       0.547200
     12 O09        -13.4810    13.1320    -9.2960 o          1 A1I      -0.550000
     13 N11        -14.5430     7.0280    -7.9910 nd         1 A1I      -0.658000
     14 C12        -14.9940     5.9690    -7.2500 cd         1 A1I       0.329000
     15 Cl13       -15.0370     4.3470    -7.8530 cl         1 A1I      -0.140000
     16 C14        -15.3940     6.3630    -6.0090 cc         1 A1I      -0.220000
     17 N15        -15.1240     7.7190    -5.9440 na         1 A1I      -0.146500
     18 C16        -15.1560     8.5240    -4.6990 c3         1 A1I       0.071600
     19 C18        -15.1490     8.7220    -2.1400 c6         1 A1I      -0.112400
     20 C19        -14.8880     7.9830    -0.8050 c6         1 A1I       0.155600
     21 O20        -13.5710     7.3920    -0.8210 os         1 A1I      -0.446000
     22 H34        -15.7500     7.0010    -3.2910 hc         1 A1I       0.057700
     23 H39        -14.1110     5.5920    -1.7260 h1         1 A1I       0.046700
     24 H42        -12.7700     7.8020    -3.4130 hc         1 A1I       0.054450
     25 H41        -13.4600     6.3060    -4.0310 hc         1 A1I       0.054450
     26 H24        -13.9350    13.8010    -6.5940 hc         1 A1I       0.047700
     27 H25        -15.5010    13.8130    -7.4240 hc         1 A1I       0.047700
     28 H23        -15.3380    13.0280    -5.8490 hc         1 A1I       0.047700
     29 H26        -15.3380    10.6360    -6.0470 ha         1 A1I       0.187000
     30 H27        -13.5040     8.7530    -9.5360 h4         1 A1I       0.215000
     31 H28        -11.8250    11.3990   -10.6670 h1         1 A1I       0.057367
     32 H29        -12.6290     9.8950   -11.1890 h1         1 A1I       0.057367
     33 H30        -13.4130    11.4690   -11.4860 h1         1 A1I       0.057367
     34 H31        -15.7870     5.7780    -5.1880 h4         1 A1I       0.169000
     35 H33        -14.3520     9.2680    -4.7510 h1         1 A1I       0.067700
     36 H32        -16.1190     9.0490    -4.6620 h1         1 A1I       0.067700
     37 H36        -14.4610     9.5760    -2.2220 hc         1 A1I       0.054450
     38 H35        -16.1660     9.1380    -2.1370 hc         1 A1I       0.054450
     39 H37        -14.9530     8.6890     0.0350 h1         1 A1I       0.046700
     40 H38        -15.6400     7.1950    -0.6500 h1         1 A1I       0.046700
     41 H40        -12.3750     5.9860    -1.7790 h1         1 A1I       0.046700
     42 C01        -14.8310    13.2050    -6.8050 c3         1 A1I      -0.032900
@<TRIPOS>BOND
     1     1     7 1   
     2     1    13 2   
     3     1    17 1   
     4     2     4 1   
     5     2    18 1   
     6     2    19 1   
     7     2    22 1   
     8     3     4 1   
     9     3    21 1   
    10     3    23 1   
    11     3    41 1   
    12     4    24 1   
    13     4    25 1   
    14     5     6 2   
    15     5    11 1   
    16     5    42 1   
    17     6     7 1   
    18     6    29 1   
    19     7     8 2   
    20     8     9 1   
    21     8    30 1   
    22     9    10 1   
    23     9    11 1   
    24    10    31 1   
    25    10    32 1   
    26    10    33 1   
    27    11    12 2   
    28    13    14 1   
    29    14    15 1   
    30    14    16 2   
    31    16    17 1   
    32    16    34 1   
    33    17    18 1   
    34    18    35 1   
    35    18    36 1   
    36    19    20 1   
    37    19    37 1   
    38    19    38 1   
    39    20    21 1   
    40    20    39 1   
    41    20    40 1   
    42    26    42 1   
    43    27    42 1   
    44    28    42 1   
@<TRIPOS>SUBSTRUCTURE
     1 A1I         1 TEMP              0 ****  ****    0 ROOT
