@<TRIPOS>MOLECULE
A1I
   29    29     1     0     0
SMALL
No Charge or Current Charge


@<TRIPOS>ATOM
      1 C3         -29.9210    12.9200     7.6770 c3         1 A1I       0.169300
      2 C10        -28.5270    10.8950     4.0470 ca         1 A1I      -0.351500
      3 C11        -29.3560    11.2120     2.9490 ca         1 A1I       0.016000
      4 C13        -27.6290    12.6910     2.0680 ca         1 A1I      -0.033000
      5 C14        -26.8070    12.3770     3.1630 ca         1 A1I      -0.169000
      6 N1         -29.6000    13.1830    10.1530 n8         1 A1I      -1.031200
      7 C2         -30.3050    12.4010     9.0880 c3         1 A1I       0.110800
      8 O4         -28.5400    13.2870     7.7810 oh         1 A1I      -0.676000
      9 C5         -30.1630    11.9000     6.5270 c3         1 A1I       0.200800
     10 N6         -29.2280    10.7570     6.6200 n7         1 A1I      -0.874300
     11 S7         -29.1000     9.7550     5.2990 sy         1 A1I       1.168600
     12 O8         -30.4600     9.3000     4.9960 o          1 A1I      -0.533000
     13 O9         -28.0370     8.8120     5.6500 o          1 A1I      -0.533000
     14 C12        -28.9030    12.1070     1.9650 ca         1 A1I      -0.149000
     15 C15        -27.2530    11.4830     4.1480 ca         1 A1I       0.258000
     16 F16        -26.4490    11.2210     5.2010 f          1 A1I      -0.165000
     17 H20        -30.5230    13.8160     7.4740 h1         1 A1I       0.034700
     18 H27        -30.3470    10.7700     2.8490 ha         1 A1I       0.145000
     19 H29        -27.2820    13.3840     1.3050 ha         1 A1I       0.121000
     20 H30        -25.8230    12.8300     3.2530 ha         1 A1I       0.138000
     21 H18        -30.0470    14.1070    10.2440 hn         1 A1I       0.409000
     22 H19        -29.7930    12.7520    11.0680 hn         1 A1I       0.409000
     23 H22        -31.3930    12.4590     9.2330 h1         1 A1I       0.052200
     24 H21        -30.0050    11.3470     9.1790 h1         1 A1I       0.052200
     25 H23        -28.4670    13.3580     8.7730 ho         1 A1I       0.482000
     26 H25        -30.0340    12.4400     5.5790 h1         1 A1I       0.059700
     27 H24        -31.2060    11.5550     6.5630 h1         1 A1I       0.059700
     28 H26        -28.2900    11.1570     6.6400 hn         1 A1I       0.505000
     29 H28        -29.5420    12.3500     1.1190 ha         1 A1I       0.124000
@<TRIPOS>BOND
     1     1     7 1   
     2     1     8 1   
     3     1     9 1   
     4     1    17 1   
     5     2     3 ar  
     6     2    11 1   
     7     2    15 ar  
     8     3    14 ar  
     9     3    18 1   
    10     4     5 ar  
    11     4    14 ar  
    12     4    19 1   
    13     5    15 ar  
    14     5    20 1   
    15     6     7 1   
    16     6    21 1   
    17     6    22 1   
    18     7    23 1   
    19     7    24 1   
    20     8    25 1   
    21     9    10 1   
    22     9    26 1   
    23     9    27 1   
    24    10    11 1   
    25    10    28 1   
    26    11    12 2   
    27    11    13 2   
    28    14    29 1   
    29    15    16 1   
@<TRIPOS>SUBSTRUCTURE
     1 A1I         1 TEMP              0 ****  ****    0 ROOT
