@<TRIPOS>MOLECULE
A1I
   38    39     1     0     0
SMALL
No Charge or Current Charge


@<TRIPOS>ATOM
      1 C1         -32.0740    11.1480     7.3470 c3         1 A1I       0.174100
      2 C3         -30.1620    12.6270     6.7350 c3         1 A1I       0.197800
      3 C6         -29.2230    14.5750     8.1230 ca         1 A1I      -0.102300
      4 C7         -29.9110    15.6890     8.6480 ca         1 A1I      -0.096000
      5 C8         -29.3310    16.9700     8.6020 ca         1 A1I      -0.114500
      6 C10        -27.3660    16.0430     7.5090 ca         1 A1I      -0.114500
      7 C11        -27.9450    14.7620     7.5540 ca         1 A1I      -0.096000
      8 C15        -28.9910    10.7030     4.6550 ca         1 A1I      -0.248500
      9 C16        -28.6160    11.5980     3.6260 ca         1 A1I      -0.082500
     10 C19        -26.2750    10.9840     3.9260 ca         1 A1I      -0.156000
     11 C22        -27.9920     9.9520     5.3150 ca         1 A1I      -0.082500
     12 N2         -30.7480    11.2520     6.6950 n3         1 A1I      -0.734500
     13 C4         -29.8660    13.1890     8.1630 c3         1 A1I       0.219800
     14 N5         -29.0460    12.2520     8.9620 n8         1 A1I      -0.994200
     15 C9         -28.0590    17.1470     8.0320 ca         1 A1I      -0.104000
     16 S12        -30.7230    10.5310     5.1490 sy         1 A1I       1.157600
     17 O13        -30.9670     9.1020     5.3740 o          1 A1I      -0.523000
     18 O14        -31.5800    11.3430     4.2780 o          1 A1I      -0.523000
     19 C17        -27.2640    11.7320     3.2690 ca         1 A1I       0.185000
     20 F18        -26.9110    12.5900     2.2870 f          1 A1I      -0.165500
     21 C20        -26.6440    10.0970     4.9480 ca         1 A1I       0.185000
     22 F21        -25.6940     9.3770     5.5840 f          1 A1I      -0.165500
     23 H27        -32.0350    11.4810     8.3920 h1         1 A1I       0.054033
     24 H28        -32.8210    11.7580     6.8230 h1         1 A1I       0.054033
     25 H29        -32.4290    10.1090     7.3570 h1         1 A1I       0.054033
     26 H30        -29.2080    12.6510     6.1970 h1         1 A1I       0.064700
     27 H31        -30.8270    13.3340     6.2200 h1         1 A1I       0.064700
     28 H32        -30.8970    15.5660     9.0900 ha         1 A1I       0.121000
     29 H33        -29.8680    17.8240     9.0080 ha         1 A1I       0.114000
     30 H35        -26.3810    16.1780     7.0690 ha         1 A1I       0.114000
     31 H36        -27.3970    13.9130     7.1510 ha         1 A1I       0.121000
     32 H37        -29.3630    12.1930     3.1040 ha         1 A1I       0.158000
     33 H38        -25.2320    11.0930     3.6460 ha         1 A1I       0.154000
     34 H39        -28.2560     9.2640     6.1160 ha         1 A1I       0.158000
     35 H23        -30.8290    13.2780     8.6830 h1         1 A1I       0.022700
     36 H26        -29.1780    12.4640     9.9550 hn         1 A1I       0.407000
     37 H24        -29.4610    11.3200     8.8440 hn         1 A1I       0.407000
     38 H34        -27.6110    18.1380     7.9970 ha         1 A1I       0.113000
@<TRIPOS>BOND
     1     1    12 1   
     2     1    23 1   
     3     1    24 1   
     4     1    25 1   
     5     2    12 1   
     6     2    13 1   
     7     2    26 1   
     8     2    27 1   
     9     3     4 ar  
    10     3     7 ar  
    11     3    13 1   
    12     4     5 ar  
    13     4    28 1   
    14     5    15 ar  
    15     5    29 1   
    16     6     7 ar  
    17     6    15 ar  
    18     6    30 1   
    19     7    31 1   
    20     8     9 ar  
    21     8    11 ar  
    22     8    16 1   
    23     9    19 ar  
    24     9    32 1   
    25    10    19 ar  
    26    10    21 ar  
    27    10    33 1   
    28    11    21 ar  
    29    11    34 1   
    30    12    16 1   
    31    13    14 1   
    32    13    35 1   
    33    14    36 1   
    34    14    37 1   
    35    15    38 1   
    36    16    17 2   
    37    16    18 2   
    38    19    20 1   
    39    21    22 1   
@<TRIPOS>SUBSTRUCTURE
     1 A1I         1 TEMP              0 ****  ****    0 ROOT
