@<TRIPOS>MOLECULE
A1I
   29    29     1     0     0
SMALL
abcg2


@<TRIPOS>ATOM
      1 C3         -29.9190    13.0200     7.8900 c3         1 A1I       0.169300
      2 C10        -28.5310    10.9820     3.9700 ca         1 A1I      -0.351500
      3 C11        -29.3490    11.2050     2.8690 ca         1 A1I       0.016000
      4 C13        -27.5660    12.4060     1.7950 ca         1 A1I      -0.033000
      5 C14        -26.7410    12.1940     2.8920 ca         1 A1I      -0.169000
      6 N1         -29.8630    13.0020    10.3060 n8         1 A1I      -1.031200
      7 C2         -30.3080    12.2400     9.1480 c3         1 A1I       0.110800
      8 O4         -28.5820    13.4440     7.9960 oh         1 A1I      -0.676000
      9 C5         -30.0810    12.2150     6.6120 c3         1 A1I       0.200800
     10 N6         -29.1690    11.0750     6.6380 n7         1 A1I      -0.874300
     11 S7         -29.1250    10.0520     5.3630 sy         1 A1I       1.168600
     12 O8         -30.4950     9.6800     5.0610 o          1 A1I      -0.533000
     13 O9         -28.1480     9.0260     5.6730 o          1 A1I      -0.533000
     14 C12        -28.8640    11.9160     1.7820 ca         1 A1I      -0.149000
     15 C15        -27.2380    11.4850     3.9640 ca         1 A1I       0.258000
     16 F16        -26.4620    11.2900     5.0350 f          1 A1I      -0.165000
     17 H20        -30.5960    13.8840     7.8000 h1         1 A1I       0.034700
     18 H27        -30.3600    10.8220     2.8610 ha         1 A1I       0.145000
     19 H29        -27.1860    12.9600     0.9470 ha         1 A1I       0.121000
     20 H30        -25.7280    12.5750     2.9160 ha         1 A1I       0.138000
     21 H18        -30.5210    13.7410    10.5190 hn         1 A1I       0.409000
     22 H19        -29.8130    12.4130    11.1250 hn         1 A1I       0.409000
     23 H22        -31.3840    12.0300     9.1280 h1         1 A1I       0.052200
     24 H21        -29.7930    11.2780     9.1570 h1         1 A1I       0.052200
     25 H23        -28.4510    13.5690     8.9520 ho         1 A1I       0.482000
     26 H25        -29.9000    12.8650     5.7480 h1         1 A1I       0.059700
     27 H24        -31.1080    11.8570     6.5480 h1         1 A1I       0.059700
     28 H26        -28.2450    11.3110     6.9890 hn         1 A1I       0.505000
     29 H28        -29.5030    12.0870     0.9270 ha         1 A1I       0.124000
@<TRIPOS>BOND
     1     1     7 1   
     2     1     8 1   
     3     1     9 1   
     4     1    17 1   
     5     2     3 ar  
     6     2    11 1   
     7     2    15 ar  
     8     3    14 ar  
     9     3    18 1   
    10     4     5 ar  
    11     4    14 ar  
    12     4    19 1   
    13     5    15 ar  
    14     5    20 1   
    15     6     7 1   
    16     6    21 1   
    17     6    22 1   
    18     7    23 1   
    19     7    24 1   
    20     8    25 1   
    21     9    10 1   
    22     9    26 1   
    23     9    27 1   
    24    10    11 1   
    25    10    28 1   
    26    11    12 2   
    27    11    13 2   
    28    14    29 1   
    29    15    16 1   
@<TRIPOS>SUBSTRUCTURE
     1 A1I         1 TEMP              0 ****  ****    0 ROOT
