@<TRIPOS>MOLECULE
A1I
   29    29     1     0     0
SMALL
No Charge or Current Charge


@<TRIPOS>ATOM
      1 C2          -9.3050    11.1940   -12.7700 c3         1 A1I       0.114800
      2 C3          -8.3020    11.8650   -13.7610 c3         1 A1I       0.150300
      3 C5          -8.3060    13.4310   -13.7600 c3         1 A1I       0.251800
      4 O9          -7.1100    13.0090   -10.5170 o          1 A1I      -0.547500
      5 C10         -7.1160    15.6760   -10.7260 ca         1 A1I      -0.331500
      6 C11         -5.9420    15.7190    -9.9430 ca         1 A1I       0.015000
      7 C12         -5.3790    16.9570    -9.5860 ca         1 A1I      -0.149000
      8 C13         -5.9770    18.1550   -10.0100 ca         1 A1I      -0.032000
      9 C14         -7.1400    18.1120   -10.7950 ca         1 A1I      -0.173000
     10 C15         -7.7080    16.8790   -11.1540 ca         1 A1I       0.265000
     11 N1         -10.7230    11.5660   -12.9950 n8         1 A1I      -1.006200
     12 O4          -6.9630    11.3890   -13.4830 oh         1 A1I      -0.668000
     13 N6          -7.3610    13.9950   -12.7670 n7         1 A1I      -0.957300
     14 S7          -7.8270    14.1000   -11.1760 sy         1 A1I       1.207600
     15 O8          -9.2890    14.1780   -11.1750 o          1 A1I      -0.547500
     16 F16         -8.8200    16.8820   -11.9240 f          1 A1I      -0.165000
     17 H22         -9.2280    10.1040   -12.8890 h1         1 A1I       0.033700
     18 H21         -9.0390    11.4320   -11.7320 h1         1 A1I       0.033700
     19 H20         -8.6000    11.5500   -14.7710 h1         1 A1I       0.055700
     20 H24         -7.9740    13.7340   -14.7620 h1         1 A1I       0.072200
     21 H25         -9.3250    13.8270   -13.6560 h1         1 A1I       0.072200
     22 H27         -5.4620    14.8010    -9.6050 ha         1 A1I       0.145000
     23 H28         -4.4760    16.9860    -8.9810 ha         1 A1I       0.125000
     24 H29         -5.5380    19.1120    -9.7330 ha         1 A1I       0.121000
     25 H30         -7.6040    19.0350   -11.1310 ha         1 A1I       0.137000
     26 H18        -11.3200    11.0090   -12.3700 hn         1 A1I       0.408500
     27 H19        -10.8720    12.5260   -12.6540 hn         1 A1I       0.408500
     28 H23         -6.9460    10.4280   -13.6910 ho         1 A1I       0.446000
     29 H26         -6.6820    13.2360   -12.6530 hn         1 A1I       0.513000
@<TRIPOS>BOND
     1     1     2 1   
     2     1    11 1   
     3     1    17 1   
     4     1    18 1   
     5     2     3 1   
     6     2    12 1   
     7     2    19 1   
     8     3    13 1   
     9     3    20 1   
    10     3    21 1   
    11     4    14 2   
    12     5     6 ar  
    13     5    10 ar  
    14     5    14 1   
    15     6     7 ar  
    16     6    22 1   
    17     7     8 ar  
    18     7    23 1   
    19     8     9 ar  
    20     8    24 1   
    21     9    10 ar  
    22     9    25 1   
    23    10    16 1   
    24    11    26 1   
    25    11    27 1   
    26    12    28 1   
    27    13    14 1   
    28    13    29 1   
    29    14    15 2   
@<TRIPOS>SUBSTRUCTURE
     1 A1I         1 TEMP              0 ****  ****    0 ROOT
