@<TRIPOS>MOLECULE
A1I
   94    97     1     0     0
SMALL
abcg2


@<TRIPOS>ATOM
      1 C4          28.5880   -16.9900    -4.8790 c5         1 A1I      -0.035500
      2 C5          27.8150   -16.4500    -6.1040 c5         1 A1I      -0.041000
      3 C6          28.2270   -14.9970    -6.3330 c6         1 A1I      -0.064400
      4 C7          27.8630   -18.2850    -4.5250 c5         1 A1I      -0.070400
      5 C8          26.3840   -18.0030    -4.8910 c5         1 A1I      -0.072400
      6 C10         28.1020   -17.2820    -7.3550 c3         1 A1I      -0.077100
      7 C13         24.0090   -15.8230    -5.8440 cx         1 A1I      -0.122700
      8 C15         24.0620   -17.1250    -8.7300 c3         1 A1I      -0.072400
      9 C17         22.9640   -18.0290   -10.8960 c3         1 A1I       0.184000
     10 C21         23.9940   -14.4300    -5.2960 cx         1 A1I      -0.119700
     11 C22         23.4540   -14.0650    -3.9290 c3         1 A1I      -0.039400
     12 C24         21.5940   -14.4210    -2.1710 c3         1 A1I       0.182000
     13 C26         22.5570   -14.1790    -1.0100 c3         1 A1I      -0.121100
     14 C28         32.2740   -18.0700    -5.3710 ce         1 A1I      -0.155000
     15 C1          29.7420   -14.8610    -6.4990 c6         1 A1I      -0.070400
     16 C12         25.2240   -16.3490    -6.5830 c3         1 A1I      -0.015700
     17 C14         24.8280   -17.5320    -7.4750 c3         1 A1I      -0.071400
     18 C16         23.7820   -18.3200    -9.6340 c3         1 A1I      -0.060400
     19 C18         22.7770   -19.3240   -11.6860 c3         1 A1I      -0.121100
     20 C19         23.6520   -16.9900   -11.7800 c3         1 A1I      -0.121100
     21 C2          30.5260   -15.5340    -5.3620 c6         1 A1I      -0.042200
     22 C23         22.3190   -14.9440    -3.4160 c3         1 A1I      -0.062400
     23 C25         20.5310   -15.4360    -1.7490 c3         1 A1I      -0.121100
     24 C29         33.0340   -19.1680    -5.5080 cf         1 A1I      -0.072200
     25 C3          30.0660   -16.9460    -5.1090 c2         1 A1I      -0.079400
     26 C30         34.5230   -19.0850    -5.7090 c6         1 A1I      -0.030200
     27 C31         35.2710   -19.9250    -4.6810 c6         1 A1I       0.175300
     28 C32         34.7500   -21.3610    -4.6890 c6         1 A1I      -0.107400
     29 C33         33.2430   -21.4290    -4.4550 c6         1 A1I       0.213500
     30 C34         32.5290   -20.5560    -5.4660 cf         1 A1I      -0.116200
     31 C35         31.5900   -21.0110    -6.2930 c2         1 A1I      -0.304000
     32 C38         23.1140   -14.7840    -6.4570 cx         1 A1I      -0.124400
     33 C9          26.3700   -16.6270    -5.5930 c5         1 A1I      -0.053700
     34 O20         21.7020   -17.5440   -10.4550 oh         1 A1I      -0.659000
     35 O27         20.9700   -13.2000    -2.5520 oh         1 A1I      -0.660000
     36 O36         32.8570   -22.7790    -4.4960 oh         1 A1I      -0.658000
     37 O37         35.0990   -19.3040    -3.4240 oh         1 A1I      -0.656000
     38 H4          28.3830   -16.2730    -4.0680 hc         1 A1I       0.052700
     39 H6B         27.9010   -14.3990    -5.4740 hc         1 A1I       0.040200
     40 H6A         27.7220   -14.5810    -7.2100 hc         1 A1I       0.040200
     41 H7A         28.2440   -19.1250    -5.1090 hc         1 A1I       0.043200
     42 H7B         27.9920   -18.5490    -3.4740 hc         1 A1I       0.043200
     43 H8A         26.0000   -18.7910    -5.5400 hc         1 A1I       0.041700
     44 H8B         25.7430   -17.9970    -4.0080 hc         1 A1I       0.041700
     45 H10C        27.5560   -16.8840    -8.2130 hc         1 A1I       0.034033
     46 H10A        29.1600   -17.2760    -7.6150 hc         1 A1I       0.034033
     47 H10B        27.8120   -18.3260    -7.2400 hc         1 A1I       0.034033
     48 H13         23.5000   -16.5770    -5.2470 hc         1 A1I       0.075700
     49 H15B        23.1270   -16.6370    -8.4540 hc         1 A1I       0.046200
     50 H15A        24.6510   -16.3780    -9.2710 hc         1 A1I       0.046200
     51 H21         24.8680   -13.8410    -5.5660 hc         1 A1I       0.069700
     52 H22A        24.2860   -14.1020    -3.2190 hc         1 A1I       0.047200
     53 H22B        23.1280   -13.0210    -3.9570 hc         1 A1I       0.047200
     54 H26B        22.0110   -13.8540    -0.1210 hc         1 A1I       0.040033
     55 H26A        23.0950   -15.0920    -0.7480 hc         1 A1I       0.040033
     56 H26C        23.2940   -13.4100    -1.2450 hc         1 A1I       0.040033
     57 H28         32.7890   -17.1160    -5.4350 ha         1 A1I       0.171000
     58 H1B         30.0160   -13.8050    -6.5430 hc         1 A1I       0.039700
     59 H1A         30.0540   -15.2940    -7.4520 hc         1 A1I       0.039700
     60 H11         30.3730   -18.9970    -4.9370 ha         1 A1I       0.175000
     61 H12         25.5730   -15.5380    -7.2390 hc         1 A1I       0.045700
     62 H14A        25.7120   -18.0950    -7.7800 hc         1 A1I       0.038700
     63 H14B        24.2210   -18.2360    -6.8950 hc         1 A1I       0.038700
     64 H16A        24.7310   -18.7670    -9.9430 hc         1 A1I       0.042700
     65 H16B        23.2610   -19.0920    -9.0550 hc         1 A1I       0.042700
     66 H18C        22.1650   -19.1550   -12.5750 hc         1 A1I       0.039867
     67 H18A        23.7360   -19.7230   -12.0210 hc         1 A1I       0.039867
     68 H18B        22.2890   -20.0890   -11.0780 hc         1 A1I       0.039867
     69 H19C        23.0830   -16.8250   -12.6980 hc         1 A1I       0.039867
     70 H19A        23.7520   -16.0290   -11.2740 hc         1 A1I       0.039867
     71 H19B        24.6510   -17.3220   -12.0690 hc         1 A1I       0.039867
     72 H2A         31.5930   -15.4750    -5.5780 hc         1 A1I       0.045700
     73 H2B         30.3650   -14.9560    -4.4440 hc         1 A1I       0.045700
     74 H23A        21.5650   -15.0850    -4.1970 hc         1 A1I       0.046700
     75 H23B        22.7060   -15.9400    -3.1850 hc         1 A1I       0.046700
     76 H25B        19.9590   -15.0660    -0.8940 hc         1 A1I       0.040033
     77 H25C        19.8320   -15.6350    -2.5630 hc         1 A1I       0.040033
     78 H25A        20.9840   -16.3840    -1.4560 hc         1 A1I       0.040033
     79 H30A        34.7780   -19.4720    -6.7010 hc         1 A1I       0.056200
     80 H30B        34.8660   -18.0480    -5.6710 hc         1 A1I       0.056200
     81 H31         36.3340   -19.9460    -4.9580 h1         1 A1I       0.032700
     82 H32B        34.9850   -21.8140    -5.6570 hc         1 A1I       0.056700
     83 H32A        35.2680   -21.9510    -3.9270 hc         1 A1I       0.056700
     84 H33         33.0350   -21.0030    -3.4630 h1         1 A1I       0.047700
     85 H35A        31.2610   -22.0420    -6.2850 ha         1 A1I       0.168500
     86 H35B        31.1230   -20.3580    -7.0190 ha         1 A1I       0.168500
     87 H38A        23.3850   -14.3900    -7.4300 hc         1 A1I       0.071700
     88 H38B        22.0450   -14.8640    -6.3050 hc         1 A1I       0.071700
     89 H9          26.2660   -15.8700    -4.8050 hc         1 A1I       0.047700
     90 H20         21.1710   -17.3400   -11.2320 ho         1 A1I       0.437000
     91 H27         20.5390   -12.8310    -1.7740 ho         1 A1I       0.437000
     92 H36         31.9560   -22.8480    -4.1640 ho         1 A1I       0.445000
     93 H37         35.5730   -19.8200    -2.7640 ho         1 A1I       0.439000
     94 C11         30.8450   -18.0390    -5.1240 ce         1 A1I      -0.189000
@<TRIPOS>BOND
     1     1     2 1   
     2     1     4 1   
     3     1    25 1   
     4     1    38 1   
     5     2     3 1   
     6     2     6 1   
     7     2    33 1   
     8     3    15 1   
     9     3    39 1   
    10     3    40 1   
    11     4     5 1   
    12     4    41 1   
    13     4    42 1   
    14     5    33 1   
    15     5    43 1   
    16     5    44 1   
    17     6    45 1   
    18     6    46 1   
    19     6    47 1   
    20     7    10 1   
    21     7    16 1   
    22     7    32 1   
    23     7    48 1   
    24     8    17 1   
    25     8    18 1   
    26     8    49 1   
    27     8    50 1   
    28     9    18 1   
    29     9    19 1   
    30     9    20 1   
    31     9    34 1   
    32    10    11 1   
    33    10    32 1   
    34    10    51 1   
    35    11    22 1   
    36    11    52 1   
    37    11    53 1   
    38    12    13 1   
    39    12    22 1   
    40    12    23 1   
    41    12    35 1   
    42    13    54 1   
    43    13    55 1   
    44    13    56 1   
    45    14    24 2   
    46    14    57 1   
    47    14    94 1   
    48    15    21 1   
    49    15    58 1   
    50    15    59 1   
    51    16    17 1   
    52    16    33 1   
    53    16    61 1   
    54    17    62 1   
    55    17    63 1   
    56    18    64 1   
    57    18    65 1   
    58    19    66 1   
    59    19    67 1   
    60    19    68 1   
    61    20    69 1   
    62    20    70 1   
    63    20    71 1   
    64    21    25 1   
    65    21    72 1   
    66    21    73 1   
    67    22    74 1   
    68    22    75 1   
    69    23    76 1   
    70    23    77 1   
    71    23    78 1   
    72    24    26 1   
    73    24    30 1   
    74    25    94 2   
    75    26    27 1   
    76    26    79 1   
    77    26    80 1   
    78    27    28 1   
    79    27    37 1   
    80    27    81 1   
    81    28    29 1   
    82    28    82 1   
    83    28    83 1   
    84    29    30 1   
    85    29    36 1   
    86    29    84 1   
    87    30    31 2   
    88    31    85 1   
    89    31    86 1   
    90    32    87 1   
    91    32    88 1   
    92    33    89 1   
    93    34    90 1   
    94    35    91 1   
    95    36    92 1   
    96    37    93 1   
    97    60    94 1   
@<TRIPOS>SUBSTRUCTURE
     1 A1I         1 TEMP              0 ****  ****    0 ROOT
