@<TRIPOS>MOLECULE
A1I
   31    31     1     0     0
SMALL
abcg2


@<TRIPOS>ATOM
      1 C1         -28.6060    14.4960     8.2470 c3         1 A1I      -0.087100
      2 C2         -29.9880    13.8780     8.3950 c3         1 A1I       0.163500
      3 C10        -29.9960    11.6810     3.4610 ca         1 A1I      -0.006000
      4 C11        -29.4800    12.1890     2.2760 ca         1 A1I      -0.136500
      5 C12        -28.1210    12.4530     2.1380 ca         1 A1I      -0.021300
      6 C13        -27.5610    12.9950     0.8580 c3         1 A1I      -0.057800
      7 C14        -27.2800    12.2040     3.2260 ca         1 A1I      -0.136500
      8 C15        -27.7770    11.6980     4.4110 ca         1 A1I      -0.006000
      9 N3         -30.0250    13.0270     9.5790 n8         1 A1I      -1.019200
     10 C4         -30.3760    13.0240     7.1890 c3         1 A1I       0.202800
     11 N5         -29.4720    11.8820     7.1230 n7         1 A1I      -0.882300
     12 S6         -29.7470    10.7050     6.0110 sy         1 A1I       1.145600
     13 O7         -31.1690    10.4400     5.8210 o          1 A1I      -0.550000
     14 O8         -28.8760     9.5990     6.3810 o          1 A1I      -0.550000
     15 C9         -29.1390    11.4380     4.5210 ca         1 A1I      -0.276500
     16 H22        -28.3850    15.1500     9.0920 hc         1 A1I       0.043367
     17 H20        -27.8280    13.7330     8.2010 hc         1 A1I       0.043367
     18 H21        -28.5480    15.0970     7.3390 hc         1 A1I       0.043367
     19 H16        -30.7220    14.6940     8.4370 h1         1 A1I       0.021700
     20 H27        -30.1500    12.3740     1.4460 ha         1 A1I       0.116000
     21 H29        -27.1730    14.0050     1.0000 hc         1 A1I       0.048033
     22 H30        -26.7320    12.3820     0.5020 hc         1 A1I       0.048033
     23 H28        -28.3150    13.0340     0.0740 hc         1 A1I       0.048033
     24 H31        -26.2190    12.4030     3.1380 ha         1 A1I       0.116000
     25 H32        -27.1070    11.5100     5.2400 ha         1 A1I       0.135000
     26 H19        -29.6590    13.5280    10.3790 hn         1 A1I       0.403000
     27 H17        -30.9830    12.7910     9.8070 hn         1 A1I       0.403000
     28 H24        -30.2910    13.6150     6.2750 h1         1 A1I       0.049700
     29 H23        -31.4210    12.7120     7.2880 h1         1 A1I       0.049700
     30 H25        -29.3180    11.4890     8.0520 hn         1 A1I       0.510000
     31 H26        -31.0550    11.4780     3.5450 ha         1 A1I       0.135000
@<TRIPOS>BOND
     1     1     2 1   
     2     1    16 1   
     3     1    17 1   
     4     1    18 1   
     5     2     9 1   
     6     2    10 1   
     7     2    19 1   
     8     3     4 ar  
     9     3    15 ar  
    10     3    31 1   
    11     4     5 ar  
    12     4    20 1   
    13     5     6 1   
    14     5     7 ar  
    15     6    21 1   
    16     6    22 1   
    17     6    23 1   
    18     7     8 ar  
    19     7    24 1   
    20     8    15 ar  
    21     8    25 1   
    22     9    26 1   
    23     9    27 1   
    24    10    11 1   
    25    10    28 1   
    26    10    29 1   
    27    11    12 1   
    28    11    30 1   
    29    12    13 2   
    30    12    14 2   
    31    12    15 1   
@<TRIPOS>SUBSTRUCTURE
     1 A1I         1 TEMP              0 ****  ****    0 ROOT
