@<TRIPOS>MOLECULE
A1I
   38    39     1     0     0
SMALL
abcg2


@<TRIPOS>ATOM
      1 C1         -31.6560    12.1850     5.9150 c3         1 A1I       0.174100
      2 C3         -29.5600    12.6540     7.1050 c3         1 A1I       0.197800
      3 C6         -29.0900    14.4360     8.7430 ca         1 A1I      -0.102300
      4 C7         -29.4060    15.7210     8.3080 ca         1 A1I      -0.096000
      5 C8         -28.5490    16.7860     8.5490 ca         1 A1I      -0.114500
      6 C10        -27.0360    15.3010     9.6720 ca         1 A1I      -0.114500
      7 C11        -27.8940    14.2370     9.4270 ca         1 A1I      -0.096000
      8 C15        -29.0360    10.5320     4.6270 ca         1 A1I      -0.248500
      9 C16        -29.7300    10.5170     3.4240 ca         1 A1I      -0.082500
     10 C19        -27.6810    11.1660     2.2970 ca         1 A1I      -0.156000
     11 C22        -27.6870    10.8470     4.7000 ca         1 A1I      -0.082500
     12 N2         -30.5140    11.6430     6.6440 n3         1 A1I      -0.734500
     13 C4         -30.0190    13.2870     8.4230 c3         1 A1I       0.219800
     14 N5         -30.0000    12.2760     9.4610 n8         1 A1I      -0.994200
     15 C9         -27.3600    16.5780     9.2350 ca         1 A1I      -0.104000
     16 S12        -29.9180    10.1930     6.1350 sy         1 A1I       1.157600
     17 O13        -28.9480     9.7440     7.1170 o          1 A1I      -0.523000
     18 O14        -31.0530     9.3510     5.8040 o          1 A1I      -0.523000
     19 C17        -29.0230    10.8380     2.2800 ca         1 A1I       0.185000
     20 F18        -29.6570    10.8260     1.1060 f          1 A1I      -0.165500
     21 C20        -27.0420    11.1630     3.5210 ca         1 A1I       0.185000
     22 F21        -25.7440    11.4700     3.5620 f          1 A1I      -0.165500
     23 H27        -32.1050    12.9670     6.5240 h1         1 A1I       0.054033
     24 H28        -31.3650    12.6250     4.9570 h1         1 A1I       0.054033
     25 H29        -32.4120    11.4230     5.7530 h1         1 A1I       0.054033
     26 H30        -28.5790    12.2090     7.2730 h1         1 A1I       0.064700
     27 H31        -29.4420    13.4230     6.3360 h1         1 A1I       0.064700
     28 H32        -30.3360    15.8910     7.7770 ha         1 A1I       0.121000
     29 H33        -28.8130    17.7790     8.2070 ha         1 A1I       0.114000
     30 H35        -26.1110    15.1310    10.2090 ha         1 A1I       0.114000
     31 H36        -27.6370    13.2450     9.7750 ha         1 A1I       0.121000
     32 H37        -30.7770    10.2540     3.3650 ha         1 A1I       0.158000
     33 H38        -27.1520    11.4100     1.3850 ha         1 A1I       0.154000
     34 H39        -27.1420    10.8410     5.6350 ha         1 A1I       0.158000
     35 H23        -31.0190    13.7170     8.2630 h1         1 A1I       0.022700
     36 H26        -30.4070    12.6500    10.3090 hn         1 A1I       0.407000
     37 H24        -30.5900    11.5020     9.1810 hn         1 A1I       0.407000
     38 H34        -26.6910    17.4070     9.4300 ha         1 A1I       0.113000
@<TRIPOS>BOND
     1     1    12 1   
     2     1    23 1   
     3     1    24 1   
     4     1    25 1   
     5     2    12 1   
     6     2    13 1   
     7     2    26 1   
     8     2    27 1   
     9     3     4 ar  
    10     3     7 ar  
    11     3    13 1   
    12     4     5 ar  
    13     4    28 1   
    14     5    15 ar  
    15     5    29 1   
    16     6     7 ar  
    17     6    15 ar  
    18     6    30 1   
    19     7    31 1   
    20     8     9 ar  
    21     8    11 ar  
    22     8    16 1   
    23     9    19 ar  
    24     9    32 1   
    25    10    19 ar  
    26    10    21 ar  
    27    10    33 1   
    28    11    21 ar  
    29    11    34 1   
    30    12    16 1   
    31    13    14 1   
    32    13    35 1   
    33    14    36 1   
    34    14    37 1   
    35    15    38 1   
    36    16    17 2   
    37    16    18 2   
    38    19    20 1   
    39    21    22 1   
@<TRIPOS>SUBSTRUCTURE
     1 A1I         1 TEMP              0 ****  ****    0 ROOT
