@<TRIPOS>MOLECULE
A1I
   27    28     1     0     0
SMALL
No Charge or Current Charge


@<TRIPOS>ATOM
      1 N4         -17.2680    -9.2560     6.0080 n7         1 A1I      -0.890300
      2 C5         -17.1350   -10.4500     5.1590 c3         1 A1I       0.242800
      3 C6         -16.5770   -11.6350     5.9480 cx         1 A1I      -0.181700
      4 C7         -16.4340   -12.9860     5.2810 cx         1 A1I      -0.120900
      5 C8         -17.4470   -12.7950     6.3840 cx         1 A1I      -0.120900
      6 C10        -17.5460   -10.3820     9.3090 ca         1 A1I      -0.019000
      7 C11        -16.8440   -10.4230    10.5260 ca         1 A1I      -0.127500
      8 C12        -16.2770    -9.2520    11.0550 ca         1 A1I      -0.061000
      9 C13        -16.4120    -8.0350    10.3660 ca         1 A1I      -0.127500
     10 C14        -17.1120    -7.9860     9.1490 ca         1 A1I      -0.019000
     11 O1         -19.0980    -7.7550     6.8140 o          1 A1I      -0.536000
     12 S2         -18.5660    -9.1000     7.0500 sy         1 A1I       1.161600
     13 O3         -19.3890   -10.3040     6.9100 o          1 A1I      -0.536000
     14 C9         -17.6830    -9.1610     8.6150 ca         1 A1I      -0.287500
     15 H15        -16.4860    -9.2340     6.6590 hn         1 A1I       0.485000
     16 H16        -18.0850   -10.7160     4.6750 h1         1 A1I       0.070200
     17 H17        -16.4220   -10.2370     4.3500 h1         1 A1I       0.070200
     18 H18        -15.7580   -11.3530     6.6070 hc         1 A1I       0.079700
     19 H20        -16.8100   -13.1010     4.2660 hc         1 A1I       0.077950
     20 H19        -15.5450   -13.5710     5.5040 hc         1 A1I       0.077950
     21 H22        -18.4980   -12.7890     6.1040 hc         1 A1I       0.077950
     22 H21        -17.2370   -13.2530     7.3470 hc         1 A1I       0.077950
     23 H23        -17.9810   -11.2980     8.9130 ha         1 A1I       0.126000
     24 H24        -16.7400   -11.3660    11.0590 ha         1 A1I       0.118000
     25 H25        -15.7340    -9.2880    11.9980 ha         1 A1I       0.117000
     26 H26        -15.9720    -7.1280    10.7760 ha         1 A1I       0.118000
     27 H27        -17.2070    -7.0350     8.6250 ha         1 A1I       0.126000
@<TRIPOS>BOND
     1     1     2 1   
     2     1    12 1   
     3     1    15 1   
     4     2     3 1   
     5     2    16 1   
     6     2    17 1   
     7     3     4 1   
     8     3     5 1   
     9     3    18 1   
    10     4     5 1   
    11     4    19 1   
    12     4    20 1   
    13     5    21 1   
    14     5    22 1   
    15     6     7 ar  
    16     6    14 ar  
    17     6    23 1   
    18     7     8 ar  
    19     7    24 1   
    20     8     9 ar  
    21     8    25 1   
    22     9    10 ar  
    23     9    26 1   
    24    10    14 ar  
    25    10    27 1   
    26    11    12 2   
    27    12    13 2   
    28    12    14 1   
@<TRIPOS>SUBSTRUCTURE
     1 A1I         1 TEMP              0 ****  ****    0 ROOT
