@<TRIPOS>MOLECULE
A1I
   42    44     1     0     0
SMALL
abcg2


@<TRIPOS>ATOM
      1 C10        -15.5470     8.0430    -7.0690 cc         1 A1I       0.484300
      2 C17        -14.9000     7.8120    -3.6930 c6         1 A1I      -0.079700
      3 C21        -12.4670     7.3680    -3.3120 c6         1 A1I       0.155600
      4 C22        -13.5060     7.8490    -4.3140 c6         1 A1I      -0.112400
      5 C02        -14.7530    11.7200    -7.4040 cd         1 A1I      -0.204400
      6 C03        -15.4190    10.5740    -7.1060 cc         1 A1I      -0.091000
      7 C04        -14.8500     9.2970    -7.3530 cc         1 A1I      -0.254800
      8 C05        -13.6180     9.2580    -7.9270 cd         1 A1I       0.009600
      9 N06        -12.9400    10.3830    -8.2440 n          1 A1I      -0.266000
     10 C07        -11.6240    10.2860    -8.8620 c3         1 A1I       0.075300
     11 C08        -13.4340    11.6590    -7.9980 c          1 A1I       0.547200
     12 O09        -12.7640    12.6440    -8.2890 o          1 A1I      -0.550000
     13 N11        -15.7210     7.0810    -7.9510 nd         1 A1I      -0.658000
     14 C12        -16.3810     6.1110    -7.2870 cd         1 A1I       0.329000
     15 CL13       -16.8370     4.6500    -8.0570 cl         1 A1I      -0.140000
     16 C14        -16.6280     6.4650    -5.9950 cc         1 A1I      -0.220000
     17 N15        -16.0850     7.7140    -5.8690 na         1 A1I      -0.146500
     18 C16        -15.9640     8.4160    -4.6020 c3         1 A1I       0.071600
     19 C18        -14.8760     8.5590    -2.3610 c6         1 A1I      -0.112400
     20 C19        -13.7550     8.0370    -1.4760 c6         1 A1I       0.155600
     21 O20        -12.4990     8.1110    -2.1130 os         1 A1I      -0.446000
     22 H34        -15.1640     6.7660    -3.4940 hc         1 A1I       0.057700
     23 H39        -12.6300     6.3000    -3.1040 h1         1 A1I       0.046700
     24 H42        -13.2720     8.8710    -4.6310 hc         1 A1I       0.054450
     25 H41        -13.4520     7.2180    -5.2050 hc         1 A1I       0.054450
     26 H24        -14.7030    13.6580    -6.4820 hc         1 A1I       0.047700
     27 H25        -15.4000    13.6490    -8.0900 hc         1 A1I       0.047700
     28 H23        -16.3240    13.0070    -6.7310 hc         1 A1I       0.047700
     29 H26        -16.4170    10.6370    -6.6850 ha         1 A1I       0.187000
     30 H27        -13.1240     8.3230    -8.1520 h4         1 A1I       0.215000
     31 H28        -10.8690    10.7480    -8.2290 h1         1 A1I       0.057367
     32 H29        -11.3760     9.2390    -9.0010 h1         1 A1I       0.057367
     33 H30        -11.6210    10.7820    -9.8300 h1         1 A1I       0.057367
     34 H31        -17.1260     5.9600    -5.1840 h4         1 A1I       0.169000
     35 H33        -15.7260     9.4600    -4.8010 h1         1 A1I       0.067700
     36 H32        -16.9380     8.3980    -4.1110 h1         1 A1I       0.067700
     37 H36        -14.7310     9.6300    -2.5410 hc         1 A1I       0.054450
     38 H35        -15.8280     8.4480    -1.8370 hc         1 A1I       0.054450
     39 H37        -13.6830     8.6260    -0.5600 h1         1 A1I       0.046700
     40 H38        -13.9760     6.9990    -1.1820 h1         1 A1I       0.046700
     41 H40        -11.4610     7.4710    -3.7220 h1         1 A1I       0.046700
     42 C01        -15.3270    13.0780    -7.1630 c3         1 A1I      -0.032900
@<TRIPOS>BOND
     1     1     7 1   
     2     1    13 2   
     3     1    17 1   
     4     2     4 1   
     5     2    18 1   
     6     2    19 1   
     7     2    22 1   
     8     3     4 1   
     9     3    21 1   
    10     3    23 1   
    11     3    41 1   
    12     4    24 1   
    13     4    25 1   
    14     5     6 2   
    15     5    11 1   
    16     5    42 1   
    17     6     7 1   
    18     6    29 1   
    19     7     8 2   
    20     8     9 1   
    21     8    30 1   
    22     9    10 1   
    23     9    11 1   
    24    10    31 1   
    25    10    32 1   
    26    10    33 1   
    27    11    12 2   
    28    13    14 1   
    29    14    15 1   
    30    14    16 2   
    31    16    17 1   
    32    16    34 1   
    33    17    18 1   
    34    18    35 1   
    35    18    36 1   
    36    19    20 1   
    37    19    37 1   
    38    19    38 1   
    39    20    21 1   
    40    20    39 1   
    41    20    40 1   
    42    26    42 1   
    43    27    42 1   
    44    28    42 1   
@<TRIPOS>SUBSTRUCTURE
     1 A1I         1 TEMP              0 ****  ****    0 ROOT
