@<TRIPOS>MOLECULE
A1I
   38    39     1     0     0
SMALL
abcg2


@<TRIPOS>ATOM
      1 C1         -31.5840    12.0830     5.3380 c3         1 A1I       0.179100
      2 C3         -30.0440    11.7830     7.2300 c3         1 A1I       0.211800
      3 C6         -31.5210    10.5910     8.8670 ca         1 A1I      -0.125300
      4 C7         -32.8100    10.2230     8.4900 ca         1 A1I      -0.095500
      5 C8         -33.3300     8.9830     8.8360 ca         1 A1I      -0.105000
      6 C10        -31.2740     8.4440     9.9500 ca         1 A1I      -0.105000
      7 C11        -30.7610     9.6850     9.6020 ca         1 A1I      -0.095500
      8 C15        -28.9330    10.6960     4.1410 ca         1 A1I      -0.245500
      9 C16        -29.3380    10.9170     2.8340 ca         1 A1I      -0.083500
     10 C19        -27.2160    12.0170     2.4170 ca         1 A1I      -0.157000
     11 C22        -27.6950    11.1110     4.6140 ca         1 A1I      -0.083500
     12 N2         -30.7500    11.1720     6.1110 n3         1 A1I      -0.737500
     13 C4         -30.9600    11.9360     8.4520 c3         1 A1I       0.209800
     14 N5         -30.2130    12.6620     9.4620 n8         1 A1I      -1.002200
     15 C9         -32.5620     8.0880     9.5680 ca         1 A1I      -0.102000
     16 S12        -30.0600     9.9300     5.2890 sy         1 A1I       1.171600
     17 O13        -29.2680     9.1460     6.2180 o          1 A1I      -0.526500
     18 O14        -31.1070     9.2840     4.5180 o          1 A1I      -0.526500
     19 C17        -28.4550    11.5750     1.9970 ca         1 A1I       0.185500
     20 F18        -28.8120    11.7920     0.7300 f          1 A1I      -0.166000
     21 C20        -26.8660    11.7740     3.7320 ca         1 A1I       0.185500
     22 F21        -25.6740    12.1920     4.1610 f          1 A1I      -0.166000
     23 H27        -32.2770    12.5790     6.0150 h1         1 A1I       0.053033
     24 H28        -30.9900    12.8490     4.8310 h1         1 A1I       0.053033
     25 H29        -32.1780    11.5450     4.6050 h1         1 A1I       0.053033
     26 H30        -29.1870    11.1720     7.5150 h1         1 A1I       0.061700
     27 H31        -29.6620    12.7660     6.9390 h1         1 A1I       0.061700
     28 H32        -33.4170    10.9190     7.9220 ha         1 A1I       0.107000
     29 H33        -34.3360     8.7180     8.5360 ha         1 A1I       0.114000
     30 H35        -30.6680     7.7520    10.5210 ha         1 A1I       0.114000
     31 H36        -29.7530     9.9410     9.9100 ha         1 A1I       0.107000
     32 H37        -30.3000    10.5870     2.4660 ha         1 A1I       0.156000
     33 H38        -26.5430    12.5310     1.7420 ha         1 A1I       0.154000
     34 H39        -27.3700    10.9270     5.6300 ha         1 A1I       0.156000
     35 H23        -31.8050    12.5710     8.1680 h1         1 A1I       0.066700
     36 H24        -30.7870    12.7920    10.2850 hn         1 A1I       0.403500
     37 H25        -29.4040    12.1320     9.7630 hn         1 A1I       0.403500
     38 H34        -32.9640     7.1200     9.8410 ha         1 A1I       0.114000
@<TRIPOS>BOND
     1     1    12 1   
     2     1    23 1   
     3     1    24 1   
     4     1    25 1   
     5     2    12 1   
     6     2    13 1   
     7     2    26 1   
     8     2    27 1   
     9     3     4 ar  
    10     3     7 ar  
    11     3    13 1   
    12     4     5 ar  
    13     4    28 1   
    14     5    15 ar  
    15     5    29 1   
    16     6     7 ar  
    17     6    15 ar  
    18     6    30 1   
    19     7    31 1   
    20     8     9 ar  
    21     8    11 ar  
    22     8    16 1   
    23     9    19 ar  
    24     9    32 1   
    25    10    19 ar  
    26    10    21 ar  
    27    10    33 1   
    28    11    21 ar  
    29    11    34 1   
    30    12    16 1   
    31    13    14 1   
    32    13    35 1   
    33    14    36 1   
    34    14    37 1   
    35    15    38 1   
    36    16    17 2   
    37    16    18 2   
    38    19    20 1   
    39    21    22 1   
@<TRIPOS>SUBSTRUCTURE
     1 A1I         1 TEMP              0 ****  ****    0 ROOT
