@<TRIPOS>MOLECULE
A1I
   49    50     1     0     0
SMALL
No Charge or Current Charge


@<TRIPOS>ATOM
      1 C4          12.0290    15.8020    24.7560 c3         1 A1I      -0.051400
      2 C5          13.3370    15.7210    23.9090 c3         1 A1I       0.045500
      3 C7          15.8570    15.4470    24.2750 c3         1 A1I       0.053500
      4 C8          16.9690    15.8540    25.2750 c3         1 A1I      -0.005100
      5 C10         18.9730    16.4060    23.7130 cc         1 A1I       0.199900
      6 C15         19.1030    14.3020    27.5760 ca         1 A1I      -0.045300
      7 C17         18.1600    14.2590    29.8260 ca         1 A1I       0.168000
      8 C20         19.8470    15.9050    29.2640 ca         1 A1I       0.135000
      9 C22         19.9180    15.3890    27.9590 ca         1 A1I      -0.110000
     10 C26         13.3680    16.7720    22.7230 c          1 A1I       0.690000
     11 C1          10.2780    15.8640    22.8300 c3         1 A1I      -0.083100
     12 C12         20.4320    14.9520    24.3200 cd         1 A1I       0.347400
     13 C14         19.1630    13.7310    26.1590 c3         1 A1I       0.099900
     14 C16         18.2250    13.7380    28.5240 ca         1 A1I      -0.121000
     15 C19         18.9680    15.3420    30.2000 ca         1 A1I      -0.169000
     16 C2          10.7530    15.1670    24.1260 c3         1 A1I      -0.049700
     17 C23         16.0060    13.9280    23.8460 c          1 A1I       0.723000
     18 C3           9.6030    15.1150    25.1600 c3         1 A1I      -0.083100
     19 C9          18.3600    15.6870    24.7040 cd         1 A1I      -0.107300
     20 F18         17.3140    13.7130    30.7250 f          1 A1I      -0.185000
     21 N11         20.2420    15.9570    23.4760 nc         1 A1I      -0.697000
     22 N13         19.3030    14.7500    25.1020 na         1 A1I      -0.150500
     23 N6          14.5130    15.8360    24.8440 n7         1 A1I      -0.840400
     24 O24         15.9040    13.0490    24.6960 o          1 A1I      -0.744000
     25 O25         16.1880    13.6750    22.6610 o          1 A1I      -0.744000
     26 O27         13.5800    16.3660    21.5880 o          1 A1I      -0.747500
     27 O28         13.2710    17.9650    22.9890 o          1 A1I      -0.747500
     28 Cl21        20.8650    17.2610    29.7270 cl         1 A1I      -0.232000
     29 H4B         11.8250    16.8460    25.0240 hc         1 A1I       0.023200
     30 H4A         12.2080    15.2800    25.7050 hc         1 A1I       0.023200
     31 H5          13.3490    14.7270    23.4420 h1         1 A1I       0.071700
     32 H7          16.0300    16.0360    23.3640 h1         1 A1I       0.049700
     33 H8A         16.8290    16.9050    25.5540 hc         1 A1I       0.033700
     34 H8B         16.8490    15.2790    26.2010 hc         1 A1I       0.033700
     35 H10         18.5730    17.2350    23.1430 h4         1 A1I       0.030100
     36 H22         20.6090    15.8390    27.2500 ha         1 A1I       0.142000
     37 H1A         10.9880    15.7040    22.0130 hc         1 A1I       0.019700
     38 H1B          9.3140    15.4550    22.5020 hc         1 A1I       0.019700
     39 H1C         10.1560    16.9420    22.9860 hc         1 A1I       0.019700
     40 H12         21.3270    14.3500    24.4260 h5         1 A1I       0.023100
     41 H14B        18.2560    13.1500    25.9580 h1         1 A1I       0.100200
     42 H14A        20.0110    13.0370    26.0950 h1         1 A1I       0.100200
     43 H16         17.5880    12.8990    28.2550 ha         1 A1I       0.166000
     44 H19         18.9130    15.7400    31.2090 ha         1 A1I       0.128000
     45 H2          10.9940    14.1280    23.8680 hc         1 A1I       0.038700
     46 H3B          9.9090    14.5630    26.0570 hc         1 A1I       0.019700
     47 H3C          9.3050    16.1260    25.4630 hc         1 A1I       0.019700
     48 H3A          8.7250    14.6100    24.7400 hc         1 A1I       0.019700
     49 H6          14.5630    16.8150    25.1470 hn         1 A1I       0.366000
@<TRIPOS>BOND
     1     1     2 1   
     2     1    16 1   
     3     1    29 1   
     4     1    30 1   
     5     2    10 1   
     6     2    23 1   
     7     2    31 1   
     8     3     4 1   
     9     3    17 1   
    10     3    23 1   
    11     3    32 1   
    12     4    19 1   
    13     4    33 1   
    14     4    34 1   
    15     5    19 2   
    16     5    21 1   
    17     5    35 1   
    18     6     9 ar  
    19     6    13 1   
    20     6    14 ar  
    21     7    14 ar  
    22     7    15 ar  
    23     7    20 1   
    24     8     9 ar  
    25     8    15 ar  
    26     8    28 1   
    27     9    36 1   
    28    10    26 1   
    29    10    27 1   
    30    11    16 1   
    31    11    37 1   
    32    11    38 1   
    33    11    39 1   
    34    12    21 2   
    35    12    22 1   
    36    12    40 1   
    37    13    22 1   
    38    13    41 1   
    39    13    42 1   
    40    14    43 1   
    41    15    44 1   
    42    16    18 1   
    43    16    45 1   
    44    17    24 1   
    45    17    25 1   
    46    18    46 1   
    47    18    47 1   
    48    18    48 1   
    49    19    22 1   
    50    23    49 1   
@<TRIPOS>SUBSTRUCTURE
     1 A1I         1 TEMP              0 ****  ****    0 ROOT
