@<TRIPOS>MOLECULE
A1I
   46    49     1     0     0
SMALL
No Charge or Current Charge


@<TRIPOS>ATOM
      1 C6         -65.1700    38.3080   -42.7880 ca         1 A1I      -0.001000
      2 C5         -66.2970    39.1520   -42.8420 ca         1 A1I      -0.083000
      3 C3         -68.4920    39.7770   -41.9880 ca         1 A1I      -0.167000
      4 C4         -67.3630    38.9440   -41.9450 ca         1 A1I      -0.040000
      5 C13        -61.0300    39.2460   -42.1930 ca         1 A1I       0.270000
      6 C14        -59.7250    39.7490   -42.0890 ca         1 A1I      -0.159000
      7 C15        -59.3560    40.5560   -41.0010 ca         1 A1I      -0.060000
      8 C16        -60.2960    40.8740   -40.0040 ca         1 A1I      -0.041000
      9 C17        -59.9100    41.6850   -38.9200 ca         1 A1I      -0.047000
     10 C18        -60.8350    42.0230   -37.9110 ca         1 A1I      -0.182500
     11 C19        -62.1520    41.5260   -38.0000 ca         1 A1I      -0.044000
     12 C2         -68.5620    40.8170   -42.9230 ca         1 A1I       0.332000
     13 C20        -62.5480    40.7160   -39.0780 ca         1 A1I       0.092100
     14 C26        -61.6180    40.3810   -40.0950 ca         1 A1I      -0.053000
     15 C27        -61.9740    39.5640   -41.1960 ca         1 A1I      -0.132000
     16 C30        -66.3600    40.2020   -43.7910 ca         1 A1I      -0.003000
     17 C31        -67.5070    41.0320   -43.8190 ca         1 A1I      -0.224000
     18 C7         -64.0950    38.5070   -43.6760 ca         1 A1I      -0.256500
     19 C8         -64.1550    39.5480   -44.6220 ca         1 A1I      -0.063000
     20 C9         -65.2760    40.3930   -44.6850 ca         1 A1I       0.115100
     21 N1         -69.6610    41.6260   -42.9650 nv         1 A1I      -1.091000
     22 N12        -61.3390    38.4580   -43.2980 nu         1 A1I      -0.907100
     23 O10        -65.2850    41.3920   -45.6210 oh         1 A1I      -0.541100
     24 O21        -63.8410    40.2700   -39.1140 oh         1 A1I      -0.549100
     25 O23        -59.2610    43.9110   -37.0590 o          1 A1I      -0.688533
     26 O24        -61.5790    43.7710   -36.1350 o          1 A1I      -0.688533
     27 O25        -59.8810    42.0610   -35.5120 o          1 A1I      -0.688533
     28 O28        -62.7060    36.5590   -42.4390 o          1 A1I      -0.542500
     29 O29        -62.3310    36.9470   -44.9450 o          1 A1I      -0.542500
     30 S11        -62.6430    37.4450   -43.6040 sy         1 A1I       1.162600
     31 S22        -60.3250    43.0800   -36.4750 s6         1 A1I       1.258100
     32 H6         -65.1340    37.5020   -42.0560 ha         1 A1I       0.148000
     33 H3         -69.3090    39.6110   -41.2920 ha         1 A1I       0.117000
     34 H4         -67.3190    38.1380   -41.2150 ha         1 A1I       0.125000
     35 H14        -58.9880    39.5160   -42.8530 ha         1 A1I       0.102000
     36 H15        -58.3380    40.9350   -40.9370 ha         1 A1I       0.115000
     37 H17        -58.8880    42.0530   -38.8600 ha         1 A1I       0.139000
     38 H19        -62.8770    41.7670   -37.2260 ha         1 A1I       0.142000
     39 H27        -62.9800    39.1750   -41.2800 ha         1 A1I       0.098000
     40 H31        -67.5920    41.8470   -44.5310 ha         1 A1I       0.102000
     41 H8         -63.3270    39.7080   -45.3100 ha         1 A1I       0.140000
     42 H1A        -69.7820    42.2680   -43.7470 hn         1 A1I       0.462000
     43 H1B        -70.4940    41.3750   -42.4350 hn         1 A1I       0.462000
     44 H12        -60.5830    38.1530   -43.8950 hn         1 A1I       0.497000
     45 H10        -66.1250    41.8890   -45.5330 ho         1 A1I       0.466000
     46 H21        -63.9690    39.7550   -39.9370 ho         1 A1I       0.451000
@<TRIPOS>BOND
     1     1     2 ar  
     2     1    18 ar  
     3     1    32 1   
     4     2     4 ar  
     5     2    16 ar  
     6     3     4 ar  
     7     3    12 ar  
     8     3    33 1   
     9     4    34 1   
    10     5     6 ar  
    11     5    15 ar  
    12     5    22 1   
    13     6     7 ar  
    14     6    35 1   
    15     7     8 ar  
    16     7    36 1   
    17     8     9 ar  
    18     8    14 ar  
    19     9    10 ar  
    20     9    37 1   
    21    10    11 ar  
    22    10    31 1   
    23    11    13 ar  
    24    11    38 1   
    25    12    17 ar  
    26    12    21 1   
    27    13    14 ar  
    28    13    24 1   
    29    14    15 ar  
    30    15    39 1   
    31    16    17 ar  
    32    16    20 ar  
    33    17    40 1   
    34    18    19 ar  
    35    18    30 1   
    36    19    20 ar  
    37    19    41 1   
    38    20    23 1   
    39    21    42 1   
    40    21    43 1   
    41    22    30 1   
    42    22    44 1   
    43    23    45 1   
    44    24    46 1   
    45    25    31 1   
    46    26    31 1   
    47    27    31 1   
    48    28    30 2   
    49    29    30 2   
@<TRIPOS>SUBSTRUCTURE
     1 A1I         1 TEMP              0 ****  ****    0 ROOT
