@<TRIPOS>MOLECULE
A1I
   46    49     1     0     0
SMALL
abcg2


@<TRIPOS>ATOM
      1 C6         -65.0840    38.5510   -42.6140 ca         1 A1I      -0.001000
      2 C5         -66.3060    39.2320   -42.7790 ca         1 A1I      -0.083000
      3 C3         -68.5020    39.8140   -41.9360 ca         1 A1I      -0.167000
      4 C4         -67.3130    39.1680   -41.7860 ca         1 A1I      -0.040000
      5 C13        -61.0470    39.6530   -42.2710 ca         1 A1I       0.270000
      6 C14        -59.6630    39.7720   -42.0220 ca         1 A1I      -0.159000
      7 C15        -59.2250    40.3640   -40.8730 ca         1 A1I      -0.060000
      8 C16        -60.1300    40.8430   -39.8990 ca         1 A1I      -0.041000
      9 C17        -59.6670    41.3800   -38.6770 ca         1 A1I      -0.047000
     10 C18        -60.5680    41.8080   -37.7450 ca         1 A1I      -0.182500
     11 C19        -61.9520    41.7520   -37.9990 ca         1 A1I      -0.044000
     12 C2         -68.7760    40.5680   -43.1090 ca         1 A1I       0.332000
     13 C20        -62.4280    41.2440   -39.1780 ca         1 A1I       0.092100
     14 C26        -61.5210    40.7480   -40.1640 ca         1 A1I      -0.053000
     15 C27        -61.9520    40.1610   -41.3720 ca         1 A1I      -0.132000
     16 C30        -66.5640    39.9940   -43.9490 ca         1 A1I      -0.003000
     17 C31        -67.8050    40.6380   -44.0950 ca         1 A1I      -0.224000
     18 C7         -64.1380    38.6420   -43.5960 ca         1 A1I      -0.256500
     19 C8         -64.3530    39.3940   -44.7680 ca         1 A1I      -0.063000
     20 C9         -65.5340    40.0650   -44.9400 ca         1 A1I       0.115100
     21 N1         -69.9620    41.2310   -43.2170 nv         1 A1I      -1.091000
     22 N12        -61.4710    39.0130   -43.4470 nu         1 A1I      -0.907100
     23 O10        -65.6840    40.7680   -46.0770 oh         1 A1I      -0.541100
     24 O21        -63.7650    41.2140   -39.3380 oh         1 A1I      -0.549100
     25 O23        -58.5670    42.4870   -36.2070 o          1 A1I      -0.688533
     26 O24        -60.6780    43.7450   -36.0230 o          1 A1I      -0.688533
     27 O25        -60.5470    41.4370   -35.1830 o          1 A1I      -0.688533
     28 O28        -62.5960    37.1410   -42.1180 o          1 A1I      -0.542500
     29 O29        -62.3480    37.0180   -44.6210 o          1 A1I      -0.542500
     30 S11        -62.6060    37.7900   -43.4180 sy         1 A1I       1.162600
     31 S22        -60.0360    42.4250   -36.1490 s6         1 A1I       1.258100
     32 H6         -64.9130    37.9810   -41.7100 ha         1 A1I       0.148000
     33 H3         -69.2540    39.7520   -41.1580 ha         1 A1I       0.117000
     34 H4         -67.1240    38.5900   -40.8900 ha         1 A1I       0.125000
     35 H14        -58.9540    39.3820   -42.7420 ha         1 A1I       0.102000
     36 H15        -58.1620    40.4480   -40.6850 ha         1 A1I       0.115000
     37 H17        -58.6020    41.4310   -38.4940 ha         1 A1I       0.139000
     38 H19        -62.6590    42.1150   -37.2640 ha         1 A1I       0.142000
     39 H27        -63.0050    40.0970   -41.6110 ha         1 A1I       0.098000
     40 H31        -68.0480    41.2010   -44.9890 ha         1 A1I       0.102000
     41 H8         -63.5870    39.4690   -45.5300 ha         1 A1I       0.140000
     42 H1A        -70.2410    41.5480   -44.1320 hn         1 A1I       0.462000
     43 H1B        -70.7300    40.9100   -42.6510 hn         1 A1I       0.462000
     44 H12        -60.7570    38.8460   -44.1470 hn         1 A1I       0.497000
     45 H10        -66.4230    41.3840   -46.0270 ho         1 A1I       0.466000
     46 H21        -64.0300    41.0020   -40.2390 ho         1 A1I       0.451000
@<TRIPOS>BOND
     1     1     2 ar  
     2     1    18 ar  
     3     1    32 1   
     4     2     4 ar  
     5     2    16 ar  
     6     3     4 ar  
     7     3    12 ar  
     8     3    33 1   
     9     4    34 1   
    10     5     6 ar  
    11     5    15 ar  
    12     5    22 1   
    13     6     7 ar  
    14     6    35 1   
    15     7     8 ar  
    16     7    36 1   
    17     8     9 ar  
    18     8    14 ar  
    19     9    10 ar  
    20     9    37 1   
    21    10    11 ar  
    22    10    31 1   
    23    11    13 ar  
    24    11    38 1   
    25    12    17 ar  
    26    12    21 1   
    27    13    14 ar  
    28    13    24 1   
    29    14    15 ar  
    30    15    39 1   
    31    16    17 ar  
    32    16    20 ar  
    33    17    40 1   
    34    18    19 ar  
    35    18    30 1   
    36    19    20 ar  
    37    19    41 1   
    38    20    23 1   
    39    21    42 1   
    40    21    43 1   
    41    22    30 1   
    42    22    44 1   
    43    23    45 1   
    44    24    46 1   
    45    25    31 1   
    46    26    31 1   
    47    27    31 1   
    48    28    30 2   
    49    29    30 2   
@<TRIPOS>SUBSTRUCTURE
     1 A1I         1 TEMP              0 ****  ****    0 ROOT
