@<TRIPOS>MOLECULE
A1I
   49    50     1     0     0
SMALL
abcg2


@<TRIPOS>ATOM
      1 C4          12.1230    15.8110    24.7570 c3         1 A1I      -0.051400
      2 C5          13.4020    15.5300    23.9670 c3         1 A1I       0.045500
      3 C7          15.8470    15.6060    24.2420 c3         1 A1I       0.053500
      4 C8          16.9040    16.0930    25.2490 c3         1 A1I      -0.005100
      5 C10         19.0290    16.7370    23.9020 cc         1 A1I       0.199900
      6 C15         18.9170    14.3040    27.4450 ca         1 A1I      -0.045300
      7 C17         18.0440    14.2010    29.6630 ca         1 A1I       0.168000
      8 C20         19.9060    15.5810    29.2120 ca         1 A1I       0.135000
      9 C22         19.8850    15.2030    27.8810 ca         1 A1I      -0.110000
     10 C26         13.4790    16.3120    22.6310 c          1 A1I       0.690000
     11 C1          10.4170    15.5370    22.8690 c3         1 A1I      -0.083100
     12 C12         20.3010    15.1150    24.4030 cd         1 A1I       0.347400
     13 C14         18.8830    13.8460    26.0070 c3         1 A1I       0.099900
     14 C16         17.9830    13.8020    28.3420 ca         1 A1I      -0.121000
     15 C19         18.9910    15.0910    30.1310 ca         1 A1I      -0.169000
     16 C2          10.8480    15.1190    24.2710 c3         1 A1I      -0.049700
     17 C23         16.0930    14.1090    23.9280 c          1 A1I       0.723000
     18 C3           9.7150    15.3760    25.2620 c3         1 A1I      -0.083100
     19 C9          18.3030    15.9570    24.7600 cd         1 A1I      -0.107300
     20 F18         17.1430    13.7180    30.5280 f          1 A1I      -0.185000
     21 N11         20.2680    16.2030    23.6830 nc         1 A1I      -0.697000
     22 N13         19.1410    14.9150    25.0710 na         1 A1I      -0.150500
     23 N6          14.5410    15.8480    24.8310 n7         1 A1I      -0.840400
     24 O24         15.7390    13.2810    24.7950 o          1 A1I      -0.744000
     25 O25         16.6770    13.8600    22.8550 o          1 A1I      -0.744000
     26 O27         13.6600    15.6570    21.5830 o          1 A1I      -0.747500
     27 O28         13.3910    17.5560    22.7200 o          1 A1I      -0.747500
     28 CL21        21.1100    16.7000    29.7510 cl         1 A1I      -0.232000
     29 H4B         11.9560    16.8930    24.7990 hc         1 A1I       0.023200
     30 H4A         12.3020    15.4900    25.7890 hc         1 A1I       0.023200
     31 H5          13.4440    14.4560    23.7560 h1         1 A1I       0.071700
     32 H7          16.0060    16.1720    23.3120 h1         1 A1I       0.049700
     33 H8A         16.7190    17.1510    25.4610 hc         1 A1I       0.033700
     34 H8B         16.7610    15.5660    26.1950 hc         1 A1I       0.033700
     35 H10         18.7100    17.6530    23.4250 h4         1 A1I       0.030100
     36 H22         20.6170    15.6080    27.1940 ha         1 A1I       0.142000
     37 H1A         11.1490    15.2530    22.1150 hc         1 A1I       0.019700
     38 H1B          9.4690    15.0660    22.6000 hc         1 A1I       0.019700
     39 H1C         10.2780    16.6190    22.8090 hc         1 A1I       0.019700
     40 H12         21.1310    14.4280    24.4880 h5         1 A1I       0.023100
     41 H14B        17.9190    13.3910    25.7840 h1         1 A1I       0.100200
     42 H14A        19.6440    13.0800    25.8470 h1         1 A1I       0.100200
     43 H16         17.2110    13.1170    28.0150 ha         1 A1I       0.166000
     44 H19         19.0090    15.3920    31.1700 ha         1 A1I       0.128000
     45 H2          11.0420    14.0400    24.2550 hc         1 A1I       0.038700
     46 H3B          9.9800    15.0470    26.2690 hc         1 A1I       0.019700
     47 H3C          9.4800    16.4420    25.3140 hc         1 A1I       0.019700
     48 H3A          8.8040    14.8510    24.9690 hc         1 A1I       0.019700
     49 H6          14.4800    16.8370    25.0520 hn         1 A1I       0.366000
@<TRIPOS>BOND
     1     1     2 1   
     2     1    16 1   
     3     1    29 1   
     4     1    30 1   
     5     2    10 1   
     6     2    23 1   
     7     2    31 1   
     8     3     4 1   
     9     3    17 1   
    10     3    23 1   
    11     3    32 1   
    12     4    19 1   
    13     4    33 1   
    14     4    34 1   
    15     5    19 2   
    16     5    21 1   
    17     5    35 1   
    18     6     9 ar  
    19     6    13 1   
    20     6    14 ar  
    21     7    14 ar  
    22     7    15 ar  
    23     7    20 1   
    24     8     9 ar  
    25     8    15 ar  
    26     8    28 1   
    27     9    36 1   
    28    10    26 1   
    29    10    27 1   
    30    11    16 1   
    31    11    37 1   
    32    11    38 1   
    33    11    39 1   
    34    12    21 2   
    35    12    22 1   
    36    12    40 1   
    37    13    22 1   
    38    13    41 1   
    39    13    42 1   
    40    14    43 1   
    41    15    44 1   
    42    16    18 1   
    43    16    45 1   
    44    17    24 1   
    45    17    25 1   
    46    18    46 1   
    47    18    47 1   
    48    18    48 1   
    49    19    22 1   
    50    23    49 1   
@<TRIPOS>SUBSTRUCTURE
     1 A1I         1 TEMP              0 ****  ****    0 ROOT
