@<TRIPOS>MOLECULE
A1I
  134   138     1     0     0
SMALL
abcg2


@<TRIPOS>ATOM
      1 C1          62.5260  -136.9940    39.9690 c          1 A1I       0.585100
      2 C2          62.9880  -136.7180    43.5560 c3         1 A1I       0.378000
      3 C3          63.4250  -136.2170    42.1450 c3         1 A1I       0.141700
      4 C11         63.0760  -138.2840    43.7600 c3         1 A1I       0.086000
      5 C15         57.0380  -133.9220    35.4820 c6         1 A1I       0.142800
      6 C16         55.6480  -134.3870    35.8740 c6         1 A1I       0.109500
      7 C21         51.3780  -132.4880    34.5160 c3         1 A1I       0.225000
      8 C22         50.4530  -133.3730    35.3420 c3         1 A1I      -0.108100
      9 C25         54.9800  -134.2460    33.5470 c6         1 A1I       0.109500
     10 C26         56.3790  -133.7730    33.1960 c6         1 A1I       0.142800
     11 C13         58.7030  -133.9370    33.7610 c3         1 A1I       0.090800
     12 C24         51.5130  -131.0920    35.1120 c3         1 A1I      -0.108100
     13 C23         50.8490  -132.3900    33.0900 c3         1 A1I      -0.108100
     14 O20         52.6790  -133.1050    34.3390 os         1 A1I      -0.479100
     15 O19         53.2340  -133.1930    36.5270 o          1 A1I      -0.551000
     16 N17         54.6670  -133.9050    34.9220 n          1 A1I      -0.412800
     17 N14         57.3560  -134.3160    34.1210 n3         1 A1I      -0.701600
     18 C12         59.7120  -134.8280    34.4700 c          1 A1I       0.604100
     19 O27         59.6660  -136.0430    34.3850 o          1 A1I      -0.584100
     20 O           60.0160  -134.8330    37.7710 o          1 A1I      -0.598100
     21 CA          61.6170  -134.8960    35.9750 c3         1 A1I       0.036700
     22 N           60.6640  -134.1840    35.1700 ns         1 A1I      -0.481900
     23 CB          62.7880  -133.9930    36.3410 c3         1 A1I       0.145600
     24 OG          63.4640  -133.6360    35.1670 os         1 A1I      -0.447000
     25 C           64.6210  -132.8740    35.4220 c3         1 A1I       0.203900
     26 C7          65.3710  -132.6680    34.1380 ca         1 A1I      -0.089300
     27 C8          65.6910  -133.7570    33.3270 ca         1 A1I      -0.090500
     28 C9          66.4060  -133.5730    32.1540 ca         1 A1I      -0.113500
     29 C4          66.8150  -132.2990    31.7750 ca         1 A1I      -0.103000
     30 C5          66.5010  -131.2120    32.5760 ca         1 A1I      -0.113500
     31 C6          65.7780  -131.3980    33.7490 ca         1 A1I      -0.090500
     32 N1          61.5900  -136.4610    37.8180 ns         1 A1I      -0.489900
     33 CA1         61.2620  -137.0120    39.1100 c3         1 A1I       0.030700
     34 CB1         60.7060  -138.4420    38.9950 c3         1 A1I      -0.027100
     35 CG          59.4650  -138.4680    38.1520 ca         1 A1I      -0.132300
     36 CD1         58.2330  -138.0760    38.6760 ca         1 A1I      -0.063000
     37 CE1         57.1070  -137.9850    37.8790 ca         1 A1I      -0.158000
     38 CZ          57.1870  -138.2850    36.5170 ca         1 A1I       0.146100
     39 OH          56.0540  -138.1370    35.8000 os         1 A1I      -0.347100
     40 CM          56.1460  -138.1740    34.3900 c3         1 A1I       0.142900
     41 CE2         58.4010  -138.7050    35.9850 ca         1 A1I      -0.158000
     42 CD2         59.5210  -138.7900    36.8040 ca         1 A1I      -0.063000
     43 O1          63.5760  -137.4390    39.5270 o          1 A1I      -0.619100
     44 N4          62.3650  -136.4810    41.1930 ns         1 A1I      -0.492900
     45 C48         63.7450  -134.7120    42.1160 c3         1 A1I      -0.083400
     46 C49         64.2400  -134.1870    40.7680 c6         1 A1I      -0.059700
     47 C54         64.2300  -132.6570    40.7650 c6         1 A1I      -0.073400
     48 C53         64.7170  -132.0880    39.4370 c6         1 A1I      -0.072400
     49 C52         66.1040  -132.6100    39.0800 c6         1 A1I      -0.078400
     50 C51         66.1410  -134.1340    39.0990 c6         1 A1I      -0.072400
     51 C50         65.6430  -134.6920    40.4280 c6         1 A1I      -0.073400
     52 OG1         63.8830  -136.0590    44.4160 os         1 A1I      -0.488000
     53 CB2         63.7920  -136.1860    45.8210 c3         1 A1I       0.161300
     54 CG2         63.9640  -134.8000    46.4170 c3         1 A1I      -0.099100
     55 CA2         64.9000  -137.1860    46.2310 c3         1 A1I       0.074500
     56 N2          64.7650  -138.4930    45.6610 n7         1 A1I      -0.957400
     57 C56         64.4810  -138.6920    44.2640 c3         1 A1I       0.192800
     58 C57         62.7580  -139.0990    42.5130 c3         1 A1I      -0.085100
     59 O58         62.0840  -138.6550    44.7090 oh         1 A1I      -0.731000
     60 H1          64.3050  -136.7820    41.8340 h1         1 A1I       0.086700
     61 H2          65.3050  -136.3460    48.2330 h4         1 A1I      -0.000800
     62 H3          57.7550  -134.3680    36.1740 h1         1 A1I       0.045200
     63 H4          57.1040  -132.8270    35.6060 h1         1 A1I       0.045200
     64 H5          55.4120  -134.0190    36.8680 h1         1 A1I       0.064200
     65 H6          55.6230  -135.4810    35.9060 h1         1 A1I       0.064200
     66 H7          50.7400  -133.4140    36.3900 hc         1 A1I       0.048700
     67 H8          49.4390  -132.9760    35.2880 hc         1 A1I       0.048700
     68 H9          50.4290  -134.3900    34.9460 hc         1 A1I       0.048700
     69 H10         54.2700  -133.7920    32.8640 h1         1 A1I       0.064200
     70 H11         54.9200  -135.3330    33.4180 h1         1 A1I       0.064200
     71 H12         56.6180  -134.1110    32.1850 h1         1 A1I       0.045200
     72 H13         56.3930  -132.6700    33.1860 h1         1 A1I       0.045200
     73 H14         58.8380  -134.0920    32.6870 h1         1 A1I       0.048200
     74 H15         58.9030  -132.8710    33.9540 h1         1 A1I       0.048200
     75 H16         51.8490  -131.1130    36.1450 hc         1 A1I       0.048700
     76 H17         52.2080  -130.4860    34.5280 hc         1 A1I       0.048700
     77 H18         50.5420  -130.5960    35.0870 hc         1 A1I       0.048700
     78 H19         49.8640  -131.9240    33.0950 hc         1 A1I       0.048700
     79 H20         51.5040  -131.7830    32.4630 hc         1 A1I       0.048700
     80 H21         50.7500  -133.3760    32.6340 hc         1 A1I       0.048700
     81 H23         62.0020  -135.7460    35.4040 h1         1 A1I       0.096700
     82 H24         60.5790  -133.1880    35.3000 hn         1 A1I       0.322500
     83 H25         63.4540  -134.5280    37.0310 h1         1 A1I       0.037700
     84 H26         62.4220  -133.1040    36.8780 h1         1 A1I       0.037700
     85 H27         65.2640  -133.3960    36.1460 h1         1 A1I       0.032200
     86 H28         64.3650  -131.9060    35.8720 h1         1 A1I       0.032200
     87 H29         65.3850  -134.7550    33.6150 ha         1 A1I       0.114500
     88 H30         66.6490  -134.4260    31.5330 ha         1 A1I       0.113500
     89 H31         67.3760  -132.1580    30.8600 ha         1 A1I       0.113000
     90 H32         66.8110  -130.2150    32.2880 ha         1 A1I       0.113500
     91 H33         65.5270  -130.5430    34.3660 ha         1 A1I       0.114500
     92 H34         62.3620  -136.8840    37.3240 hn         1 A1I       0.331500
     93 H35         60.4930  -136.3740    39.5470 h1         1 A1I       0.090700
     94 H36         60.4980  -138.8110    40.0030 hc         1 A1I       0.057200
     95 H37         61.4730  -139.0930    38.5690 hc         1 A1I       0.057200
     96 H38         58.1530  -137.8210    39.7270 ha         1 A1I       0.107000
     97 H39         56.1620  -137.6670    38.3010 ha         1 A1I       0.124500
     98 H40         55.1560  -137.9360    34.0080 h1         1 A1I       0.044367
     99 H41         56.8550  -137.4310    34.0140 h1         1 A1I       0.044367
    100 H42         56.4340  -139.1620    34.0200 h1         1 A1I       0.044367
    101 H43         58.5020  -138.9510    34.9370 ha         1 A1I       0.124500
    102 H44         60.4620  -139.1050    36.3680 ha         1 A1I       0.107000
    103 H45         61.4550  -136.1270    41.4440 hn         1 A1I       0.331500
    104 H46         64.5010  -134.4780    42.8650 hc         1 A1I       0.060200
    105 H47         62.8420  -134.1620    42.4030 hc         1 A1I       0.060200
    106 H48         63.5580  -134.5080    39.9710 hc         1 A1I       0.045700
    107 H49         63.2200  -132.2940    40.9780 hc         1 A1I       0.042200
    108 H50         64.8680  -132.2900    41.5780 hc         1 A1I       0.042200
    109 H51         64.7220  -130.9950    39.4750 hc         1 A1I       0.035700
    110 H52         64.0110  -132.3640    38.6470 hc         1 A1I       0.035700
    111 H53         66.8320  -132.2220    39.8000 hc         1 A1I       0.038200
    112 H54         66.4080  -132.2350    38.0990 hc         1 A1I       0.038200
    113 H55         67.1540  -134.4910    38.8990 hc         1 A1I       0.035700
    114 H56         65.5140  -134.5230    38.2890 hc         1 A1I       0.035700
    115 H57         65.6640  -135.7830    40.3980 hc         1 A1I       0.042200
    116 H58         66.3300  -134.3900    41.2290 hc         1 A1I       0.042200
    117 H59         61.2450  -136.9860    44.2960 ho         1 A1I       0.475000
    118 H60         62.8170  -136.5760    46.1350 h1         1 A1I       0.038700
    119 H61         63.7960  -134.8000    47.4940 hc         1 A1I       0.048700
    120 H62         64.9650  -134.4070    46.2280 hc         1 A1I       0.048700
    121 H63         63.2400  -134.1170    45.9740 hc         1 A1I       0.048700
    122 H64         65.8450  -136.7220    45.9040 h1         1 A1I       0.085700
    123 H65         64.3610  -139.1770    46.2820 hn         1 A1I       0.467000
    124 H67         64.5980  -139.7620    44.0770 h1         1 A1I       0.066700
    125 H68         65.2390  -138.1950    43.6510 h1         1 A1I       0.066700
    126 H69         63.4930  -138.9460    41.7250 hc         1 A1I       0.054033
    127 H70         62.7790  -140.1570    42.7770 hc         1 A1I       0.054033
    128 H71         61.7700  -138.8750    42.1130 hc         1 A1I       0.054033
    129 H72         62.4630  -138.6340    45.5960 ho         1 A1I       0.510000
    130 O55         61.6840  -136.2950    43.7750 oh         1 A1I      -0.676000
    131 C14         65.0060  -137.2800    47.7300 c          1 A1I       0.569900
    132 C10         60.9720  -135.4000    37.2740 c          1 A1I       0.590100
    133 O2          64.7950  -138.2840    48.3630 o          1 A1I      -0.509100
    134 C18         53.4940  -133.3840    35.3540 c          1 A1I       0.659100
@<TRIPOS>BOND
     1     1    33 1   
     2     1    43 2   
     3     1    44 1   
     4     2     3 1   
     5     2     4 1   
     6     2    52 1   
     7     2   130 1   
     8     3    44 1   
     9     3    45 1   
    10     3    60 1   
    11     4    57 1   
    12     4    58 1   
    13     4    59 1   
    14     5     6 1   
    15     5    17 1   
    16     5    62 1   
    17     5    63 1   
    18     6    16 1   
    19     6    64 1   
    20     6    65 1   
    21     7     8 1   
    22     7    12 1   
    23     7    13 1   
    24     7    14 1   
    25     8    66 1   
    26     8    67 1   
    27     8    68 1   
    28     9    10 1   
    29     9    16 1   
    30     9    69 1   
    31     9    70 1   
    32    10    17 1   
    33    10    71 1   
    34    10    72 1   
    35    11    17 1   
    36    11    18 1   
    37    11    73 1   
    38    11    74 1   
    39    12    75 1   
    40    12    76 1   
    41    12    77 1   
    42    13    78 1   
    43    13    79 1   
    44    13    80 1   
    45    14   134 1   
    46    15   134 2   
    47    16   134 1   
    48    18    19 2   
    49    18    22 1   
    50    20   132 2   
    51    21    22 1   
    52    21    23 1   
    53    21    81 1   
    54    21   132 1   
    55    22    82 1   
    56    23    24 1   
    57    23    83 1   
    58    23    84 1   
    59    24    25 1   
    60    25    26 1   
    61    25    85 1   
    62    25    86 1   
    63    26    27 ar  
    64    26    31 ar  
    65    27    28 ar  
    66    27    87 1   
    67    28    29 ar  
    68    28    88 1   
    69    29    30 ar  
    70    29    89 1   
    71    30    31 ar  
    72    30    90 1   
    73    31    91 1   
    74    32    33 1   
    75    32    92 1   
    76    32   132 1   
    77    33    34 1   
    78    33    93 1   
    79    34    35 1   
    80    34    94 1   
    81    34    95 1   
    82    35    36 ar  
    83    35    42 ar  
    84    36    37 ar  
    85    36    96 1   
    86    37    38 ar  
    87    37    97 1   
    88    38    39 1   
    89    38    41 ar  
    90    39    40 1   
    91    40    98 1   
    92    40    99 1   
    93    40   100 1   
    94    41    42 ar  
    95    41   101 1   
    96    42   102 1   
    97    44   103 1   
    98    45    46 1   
    99    45   104 1   
   100    45   105 1   
   101    46    47 1   
   102    46    51 1   
   103    46   106 1   
   104    47    48 1   
   105    47   107 1   
   106    47   108 1   
   107    48    49 1   
   108    48   109 1   
   109    48   110 1   
   110    49    50 1   
   111    49   111 1   
   112    49   112 1   
   113    50    51 1   
   114    50   113 1   
   115    50   114 1   
   116    51   115 1   
   117    51   116 1   
   118    52    53 1   
   119    53    54 1   
   120    53    55 1   
   121    53   118 1   
   122    54   119 1   
   123    54   120 1   
   124    54   121 1   
   125    55    56 1   
   126    55   122 1   
   127    55   131 1   
   128    56    57 1   
   129    56   123 1   
   130    57   124 1   
   131    57   125 1   
   132    58   126 1   
   133    58   127 1   
   134    58   128 1   
   135    59   129 1   
   136    61   131 1   
   137   117   130 1   
   138   131   133 2   
@<TRIPOS>SUBSTRUCTURE
     1 A1I         1 TEMP              0 ****  ****    0 ROOT
