@<TRIPOS>MOLECULE
A1I
  103   105     1     0     0
SMALL
No Charge or Current Charge


@<TRIPOS>ATOM
      1 N1           9.5540  -137.8910    20.1140 n          1 A1I      -0.387800
      2 C6           8.6070  -139.1560    18.3580 c5         1 A1I      -0.143400
      3 C7           9.9470  -138.9450    19.1350 c5         1 A1I       0.029700
      4 C8          11.0530  -138.5020    18.1240 c          1 A1I       0.601100
      5 C10         12.1780  -139.3900    16.0650 c3         1 A1I       0.026700
      6 N12         11.8760  -137.8660    14.1380 ns         1 A1I      -0.493900
      7 C13         11.1840  -137.0380    13.1300 c3         1 A1I       0.114700
      8 C15         11.6910  -138.6700    11.0430 c3         1 A1I       0.152000
      9 C20         11.1650  -135.5530    13.6200 c3         1 A1I      -0.088400
     10 C21         10.5850  -135.2810    15.0490 c6         1 A1I      -0.065700
     11 C22         10.8080  -133.7990    15.4650 c6         1 A1I      -0.070400
     12 C24          8.7700  -133.8920    17.0030 c6         1 A1I      -0.074400
     13 C26          9.0750  -135.6420    15.1680 c6         1 A1I      -0.070400
     14 C28         12.7990  -140.7310    15.6070 c3         1 A1I      -0.087400
     15 N41         13.0950  -132.0220    23.1780 n2         1 A1I      -0.198400
     16 N40         12.8830  -132.5520    24.2760 n1         1 A1I       0.228000
     17 N39         13.0660  -133.7770    24.1920 n2         1 A1I      -0.070200
     18 C38         12.0600  -134.6470    24.8200 c3         1 A1I       0.020800
     19 O42          9.7800  -134.3130    24.0910 o          1 A1I      -0.514100
     20 N36         11.0740  -135.6960    22.8210 ns         1 A1I      -0.468900
     21 C34         10.0730  -136.0210    21.7780 c3         1 A1I       0.033700
     22 C35          9.8900  -134.8270    20.8090 c3         1 A1I      -0.108100
     23 C33         10.4780  -137.3260    21.0210 c          1 A1I       0.609100
     24 O43         11.5900  -137.8260    21.1640 o          1 A1I      -0.594100
     25 C2           8.0820  -137.7450    20.2540 c5         1 A1I       0.048000
     26 C3           7.5430  -138.9650    19.4620 c5         1 A1I       0.180000
     27 F4           6.2850  -138.7130    18.9200 f          1 A1I      -0.100000
     28 F5           7.4480  -140.0950    20.2730 f          1 A1I      -0.100000
     29 O32         11.5580  -137.3920    18.0130 o          1 A1I      -0.601100
     30 N9          11.3830  -139.5570    17.2980 ns         1 A1I      -0.468900
     31 C30         14.4270  -142.6760    16.1810 c3         1 A1I      -0.076400
     32 C31         15.2960  -142.6170    14.9070 c3         1 A1I      -0.093100
     33 C11         11.2640  -138.7810    14.9670 c          1 A1I       0.578100
     34 O27         10.0770  -139.0650    14.8620 o          1 A1I      -0.605100
     35 C23         10.2670  -133.5180    16.8900 c6         1 A1I      -0.071900
     36 C25          8.5360  -135.3650    16.5940 c6         1 A1I      -0.071900
     37 C14         11.7890  -137.2100    11.6760 c3         1 A1I       0.388000
     38 O19         13.1800  -136.8760    11.7070 oh         1 A1I      -0.685000
     39 OG1         11.0670  -136.2950    10.8130 os         1 A1I      -0.499000
     40 CB          11.7880  -135.4760     9.8500 c3         1 A1I       0.196300
     41 CG2         10.7510  -134.4590     9.3260 c3         1 A1I      -0.095100
     42 CA          12.4460  -136.3260     8.7010 c3         1 A1I       0.015500
     43 C           13.4050  -135.4110     7.8720 c          1 A1I       0.567900
     44 O           14.6130  -135.6040     7.7620 o          1 A1I      -0.498100
     45 N           13.0980  -137.6140     9.1680 n7         1 A1I      -0.892400
     46 C16         12.1190  -138.6790     9.5320 c3         1 A1I       0.169800
     47 C18         10.2730  -139.2870    11.1580 c3         1 A1I      -0.121100
     48 O17         12.5870  -139.5580    11.7490 oh         1 A1I      -0.714000
     49 H1           8.4780  -138.4070    17.5670 hc         1 A1I       0.103700
     50 H2           8.5410  -140.1390    17.8790 hc         1 A1I       0.103700
     51 H3          10.2740  -139.8570    19.6510 h1         1 A1I       0.090700
     52 H4          12.9880  -138.6740    16.2610 h1         1 A1I       0.084700
     53 H5          12.8610  -137.6900    14.2920 hn         1 A1I       0.320500
     54 H6          10.1350  -137.3590    13.0760 h1         1 A1I       0.094700
     55 H7          12.1940  -135.1760    13.5810 hc         1 A1I       0.058200
     56 H8          10.6020  -134.9500    12.8980 hc         1 A1I       0.058200
     57 H9          11.1510  -135.9070    15.7510 hc         1 A1I       0.055700
     58 H10         11.8790  -133.5560    15.4290 hc         1 A1I       0.041700
     59 H11         10.3130  -133.1300    14.7460 hc         1 A1I       0.041700
     60 H12          8.4190  -133.7270    18.0300 hc         1 A1I       0.035700
     61 H13          8.1730  -133.2300    16.3600 hc         1 A1I       0.035700
     62 H14          8.4950  -135.0620    14.4370 hc         1 A1I       0.041700
     63 H15          8.9080  -136.6980    14.9240 hc         1 A1I       0.041700
     64 H16         11.9990  -141.4610    15.4310 hc         1 A1I       0.059200
     65 H17         13.2930  -140.5670    14.6420 hc         1 A1I       0.059200
     66 H18         13.4560  -131.0710    23.3230 hn         1 A1I       0.528400
     67 H19         11.6850  -134.2250    25.7600 h1         1 A1I       0.140200
     68 H20         12.4830  -135.6320    25.0430 h1         1 A1I       0.140200
     69 H21         11.9970  -136.1130    22.7370 hn         1 A1I       0.331500
     70 H22          9.1160  -136.2220    22.2760 h1         1 A1I       0.086700
     71 H23          9.5590  -133.9310    21.3460 hc         1 A1I       0.064700
     72 H24         10.8350  -134.5940    20.3030 hc         1 A1I       0.064700
     73 H25          9.1440  -135.0490    20.0390 hc         1 A1I       0.064700
     74 H26          7.7300  -136.8040    19.8110 h1         1 A1I       0.078700
     75 H27          7.7590  -137.7800    21.3030 h1         1 A1I       0.078700
     76 H28         10.9020  -140.4350    17.4510 hn         1 A1I       0.325500
     77 H29         14.6370  -140.5950    16.7630 hc         1 A1I       0.041700
     78 H30         13.3400  -141.4520    17.5840 hc         1 A1I       0.041700
     79 H31         13.6190  -143.4040    16.0350 hc         1 A1I       0.041200
     80 H32         15.0450  -143.0570    17.0040 hc         1 A1I       0.041200
     81 H33         15.7590  -143.5920    14.7180 hc         1 A1I       0.036700
     82 H34         14.6940  -142.3550    14.0290 hc         1 A1I       0.036700
     83 H35         16.0960  -141.8740    15.0160 hc         1 A1I       0.036700
     84 H36         10.8480  -134.0920    17.6250 hc         1 A1I       0.034450
     85 H37         10.4070  -132.4580    17.1400 hc         1 A1I       0.034450
     86 H38          7.4640  -135.6010    16.6410 hc         1 A1I       0.034450
     87 H39          9.0340  -136.0290    17.3150 hc         1 A1I       0.034450
     88 H40         13.4030  -137.0360    10.7440 ho         1 A1I       0.505000
     89 H41         12.5720  -134.8990    10.3590 h1         1 A1I       0.054700
     90 H42         10.2810  -133.9300    10.1640 hc         1 A1I       0.048367
     91 H43         11.2200  -133.7080     8.6820 hc         1 A1I       0.048367
     92 H44          9.9630  -134.9640     8.7550 hc         1 A1I       0.048367
     93 H45         11.6440  -136.5780     7.9940 h1         1 A1I       0.055700
     94 H46         12.9200  -134.5570     7.3510 h4         1 A1I      -0.001800
     95 H47         13.6480  -137.9790     8.3710 hn         1 A1I       0.453000
     96 H49         11.2220  -138.5930     8.9020 h1         1 A1I       0.055700
     97 H50         12.5460  -139.6670     9.3080 h1         1 A1I       0.055700
     98 H51          9.9950  -139.4690    12.2020 hc         1 A1I       0.051033
     99 H52          9.5210  -138.6230    10.7140 hc         1 A1I       0.051033
    100 H53         10.2250  -140.2500    10.6360 hc         1 A1I       0.051033
    101 H54         13.3570  -138.9950    11.9950 ho         1 A1I       0.508000
    102 C29         13.8250  -141.3170    16.6100 c3         1 A1I      -0.073400
    103 C37         10.8580  -134.8560    23.8970 c          1 A1I       0.613100
@<TRIPOS>BOND
     1     1     3 1   
     2     1    23 1   
     3     1    25 1   
     4     2     3 1   
     5     2    26 1   
     6     2    49 1   
     7     2    50 1   
     8     3     4 1   
     9     3    51 1   
    10     4    29 2   
    11     4    30 1   
    12     5    14 1   
    13     5    30 1   
    14     5    33 1   
    15     5    52 1   
    16     6     7 1   
    17     6    33 1   
    18     6    53 1   
    19     7     9 1   
    20     7    37 1   
    21     7    54 1   
    22     8    37 1   
    23     8    46 1   
    24     8    47 1   
    25     8    48 1   
    26     9    10 1   
    27     9    55 1   
    28     9    56 1   
    29    10    11 1   
    30    10    13 1   
    31    10    57 1   
    32    11    35 1   
    33    11    58 1   
    34    11    59 1   
    35    12    35 1   
    36    12    36 1   
    37    12    60 1   
    38    12    61 1   
    39    13    36 1   
    40    13    62 1   
    41    13    63 1   
    42    14    64 1   
    43    14    65 1   
    44    14   102 1   
    45    15    16 2   
    46    15    66 1   
    47    16    17 2   
    48    17    18 1   
    49    18    67 1   
    50    18    68 1   
    51    18   103 1   
    52    19   103 2   
    53    20    21 1   
    54    20    69 1   
    55    20   103 1   
    56    21    22 1   
    57    21    23 1   
    58    21    70 1   
    59    22    71 1   
    60    22    72 1   
    61    22    73 1   
    62    23    24 2   
    63    25    26 1   
    64    25    74 1   
    65    25    75 1   
    66    26    27 1   
    67    26    28 1   
    68    30    76 1   
    69    31    32 1   
    70    31    79 1   
    71    31    80 1   
    72    31   102 1   
    73    32    81 1   
    74    32    82 1   
    75    32    83 1   
    76    33    34 2   
    77    35    84 1   
    78    35    85 1   
    79    36    86 1   
    80    36    87 1   
    81    37    38 1   
    82    37    39 1   
    83    38    88 1   
    84    39    40 1   
    85    40    41 1   
    86    40    42 1   
    87    40    89 1   
    88    41    90 1   
    89    41    91 1   
    90    41    92 1   
    91    42    43 1   
    92    42    45 1   
    93    42    93 1   
    94    43    44 2   
    95    43    94 1   
    96    45    46 1   
    97    45    95 1   
    98    46    96 1   
    99    46    97 1   
   100    47    98 1   
   101    47    99 1   
   102    47   100 1   
   103    48   101 1   
   104    77   102 1   
   105    78   102 1   
@<TRIPOS>SUBSTRUCTURE
     1 A1I         1 TEMP              0 ****  ****    0 ROOT
