@<TRIPOS>MOLECULE
A1I
  108   111     1     0     0
SMALL
No Charge or Current Charge


@<TRIPOS>ATOM
      1 C1          60.0990  -134.3400    37.3260 c          1 A1I       0.595100
      2 C2          59.0440  -137.6170    37.5890 ca         1 A1I      -0.057000
      3 C3          61.3780  -133.4860    35.2300 c3         1 A1I      -0.096400
      4 C4          62.7970  -133.8390    35.7220 c3         1 A1I       0.165600
      5 C5          57.9020  -137.7860    36.7890 ca         1 A1I      -0.160500
      6 C7          57.6820  -136.6200    39.3390 ca         1 A1I      -0.057000
      7 C11         63.5920  -137.8240    43.4140 c3         1 A1I       0.087000
      8 C21         63.2660  -136.2860    43.6770 c3         1 A1I       0.382000
      9 O           58.7770  -135.7650    33.6740 o          1 A1I      -0.581100
     10 CA          57.0020  -134.0660    33.6340 c3         1 A1I       0.088800
     11 NB          55.7370  -134.3480    34.3900 n3         1 A1I      -0.692600
     12 OZ          53.3450  -133.5930    35.8690 os         1 A1I      -0.451000
     13 CD1         55.7900  -133.9470    35.8340 c6         1 A1I       0.117800
     14 CD2         54.5350  -133.7620    33.7190 c6         1 A1I       0.117800
     15 CE1         54.4440  -134.2190    36.5720 c6         1 A1I       0.153100
     16 CE2         53.2250  -134.0590    34.5040 c6         1 A1I       0.153100
     17 N           58.9690  -134.0110    35.1430 ns         1 A1I      -0.496900
     18 CA1         60.2480  -134.3990    35.7760 c3         1 A1I       0.042700
     19 O1          59.2470  -133.6610    37.8870 o          1 A1I      -0.600100
     20 O3          63.7500  -133.0050    35.0580 oh         1 A1I      -0.664000
     21 N1          60.9740  -135.1390    38.0320 ns         1 A1I      -0.482900
     22 CA2         60.8700  -135.4330    39.4800 c3         1 A1I       0.029700
     23 CB          60.1960  -136.8130    39.7120 c3         1 A1I      -0.025100
     24 CG          58.9430  -137.0270    38.8650 ca         1 A1I      -0.130300
     25 CZ          56.6390  -137.3790    37.2690 ca         1 A1I       0.142100
     26 OH          55.4840  -137.5260    36.5310 os         1 A1I      -0.346100
     27 CM          55.5050  -137.9220    35.1480 c3         1 A1I       0.143900
     28 C6          56.5370  -136.8030    38.5450 ca         1 A1I      -0.160500
     29 C8          62.2660  -135.3640    40.1580 c          1 A1I       0.579100
     30 O2          63.3140  -135.2940    39.5280 o          1 A1I      -0.624100
     31 N4          62.2500  -135.3940    41.5340 ns         1 A1I      -0.487900
     32 C31         63.4450  -135.3540    42.3990 c3         1 A1I       0.131700
     33 C48         63.7830  -133.8540    42.6870 c3         1 A1I      -0.076400
     34 C49         65.2890  -133.4920    42.9240 c6         1 A1I      -0.054700
     35 C54         66.1600  -133.7020    41.6490 c6         1 A1I      -0.075400
     36 C53         67.6390  -133.3150    41.8980 c6         1 A1I      -0.072900
     37 C52         67.7610  -131.8590    42.4090 c6         1 A1I      -0.075400
     38 C51         66.9040  -131.6420    43.6780 c6         1 A1I      -0.072900
     39 C50         65.4250  -132.0270    43.4260 c6         1 A1I      -0.075400
     40 OG1         64.1030  -135.7320    44.7210 os         1 A1I      -0.488000
     41 CB1         64.2660  -136.3970    45.9930 c3         1 A1I       0.162300
     42 CG2         64.3430  -135.2520    47.0280 c3         1 A1I      -0.099100
     43 CA3         65.5700  -137.2750    45.9450 c3         1 A1I       0.074500
     44 N2          65.5870  -138.3740    44.8910 n7         1 A1I      -0.961400
     45 C56         65.1320  -138.0840    43.4950 c3         1 A1I       0.194800
     46 C57         63.0210  -138.3650    42.0740 c3         1 A1I      -0.084100
     47 O58         62.9560  -138.6170    44.4430 oh         1 A1I      -0.732000
     48 H1          60.0130  -137.9350    37.2100 ha         1 A1I       0.108000
     49 H2          61.3690  -133.5430    34.1340 hc         1 A1I       0.066200
     50 H3          61.1590  -132.4440    35.4930 hc         1 A1I       0.066200
     51 H4          63.0030  -134.8960    35.5090 h1         1 A1I       0.026700
     52 H5          62.8600  -133.6880    36.8080 h1         1 A1I       0.026700
     53 H6          58.0150  -138.2350    35.8070 ha         1 A1I       0.123500
     54 H7          57.5890  -136.1590    40.3200 ha         1 A1I       0.108000
     55 H8          66.4170  -137.0540    48.0430 h4         1 A1I       0.000200
     56 H9          56.8780  -134.3880    32.5920 h1         1 A1I       0.047200
     57 H10         57.1720  -132.9810    33.6030 h1         1 A1I       0.047200
     58 H12         56.5840  -134.4980    36.3580 h1         1 A1I       0.045950
     59 H13         56.0250  -132.8760    35.9240 h1         1 A1I       0.045950
     60 H14         54.4340  -134.1630    32.7000 h1         1 A1I       0.045950
     61 H15         54.6450  -132.6710    33.6250 h1         1 A1I       0.045950
     62 H16         54.4920  -133.8220    37.5950 h1         1 A1I       0.054450
     63 H17         54.2590  -135.2990    36.6350 h1         1 A1I       0.054450
     64 H18         52.3760  -133.5530    34.0240 h1         1 A1I       0.054450
     65 H19         53.0240  -135.1410    34.5050 h1         1 A1I       0.054450
     66 H20         58.5030  -133.1750    35.4930 hn         1 A1I       0.322500
     67 H21         60.4740  -135.4410    35.5150 h1         1 A1I       0.074700
     68 H22         64.6380  -133.2550    35.3990 ho         1 A1I       0.450000
     69 H23         61.6710  -135.6450    37.4970 hn         1 A1I       0.329500
     70 H24         60.2510  -134.6610    39.9560 h1         1 A1I       0.093700
     71 H25         59.9530  -136.9250    40.7760 hc         1 A1I       0.054200
     72 H26         60.9240  -137.6030    39.4870 hc         1 A1I       0.054200
     73 H27         54.4870  -137.9220    34.7380 h1         1 A1I       0.042700
     74 H28         56.1110  -137.2270    34.5540 h1         1 A1I       0.042700
     75 H29         55.9160  -138.9340    35.0370 h1         1 A1I       0.042700
     76 H30         55.5660  -136.4880    38.9170 ha         1 A1I       0.123500
     77 H31         61.3490  -135.4610    41.9940 hn         1 A1I       0.331500
     78 H32         64.2750  -135.7720    41.8200 h1         1 A1I       0.088700
     79 H33         63.4300  -133.2470    41.8430 hc         1 A1I       0.051200
     80 H34         63.1770  -133.5270    43.5420 hc         1 A1I       0.051200
     81 H35         65.6750  -134.1510    43.7120 hc         1 A1I       0.058700
     82 H36         65.7580  -133.1030    40.8200 hc         1 A1I       0.039200
     83 H37         66.1220  -134.7480    41.3210 hc         1 A1I       0.039200
     84 H38         68.2160  -133.4340    40.9710 hc         1 A1I       0.037450
     85 H39         68.0820  -134.0020    42.6320 hc         1 A1I       0.037450
     86 H40         68.8130  -131.6260    42.6240 hc         1 A1I       0.038200
     87 H41         67.4410  -131.1620    41.6220 hc         1 A1I       0.038200
     88 H42         67.3060  -132.2440    44.5050 hc         1 A1I       0.037450
     89 H43         66.9670  -130.5930    43.9950 hc         1 A1I       0.037450
     90 H44         64.8530  -131.8940    44.3540 hc         1 A1I       0.039200
     91 H45         64.9870  -131.3370    42.6900 hc         1 A1I       0.039200
     92 H46         61.8020  -137.1810    44.4260 ho         1 A1I       0.475000
     93 H47         63.3930  -137.0050    46.2550 h1         1 A1I       0.037700
     94 H48         64.3600  -135.6410    48.0520 hc         1 A1I       0.048700
     95 H49         65.2390  -134.6390    46.8710 hc         1 A1I       0.048700
     96 H50         63.4650  -134.6010    46.9380 hc         1 A1I       0.048700
     97 H51         66.3790  -136.5710    45.7050 h1         1 A1I       0.084700
     98 H52         65.3160  -139.3070    45.2420 hn         1 A1I       0.468000
     99 H54         65.3860  -138.9360    42.8480 h1         1 A1I       0.066700
    100 H55         65.6690  -137.2170    43.0840 h1         1 A1I       0.066700
    101 H56         63.5220  -137.9130    41.2100 hc         1 A1I       0.053367
    102 H57         63.1670  -139.4500    42.0020 hc         1 A1I       0.053367
    103 H58         61.9450  -138.1730    41.9950 hc         1 A1I       0.053367
    104 H59         63.6580  -138.6720    45.1320 ho         1 A1I       0.510000
    105 O55         61.9110  -136.2500    44.1150 oh         1 A1I      -0.675000
    106 C           58.3270  -134.7170    34.1360 c          1 A1I       0.601100
    107 C9          65.9310  -137.7960    47.3720 c          1 A1I       0.570900
    108 O4          65.7190  -138.9460    47.7520 o          1 A1I      -0.509100
@<TRIPOS>BOND
     1     1    18 1   
     2     1    19 2   
     3     1    21 1   
     4     2     5 ar  
     5     2    24 ar  
     6     2    48 1   
     7     3     4 1   
     8     3    18 1   
     9     3    49 1   
    10     3    50 1   
    11     4    20 1   
    12     4    51 1   
    13     4    52 1   
    14     5    25 ar  
    15     5    53 1   
    16     6    24 ar  
    17     6    28 ar  
    18     6    54 1   
    19     7     8 1   
    20     7    45 1   
    21     7    46 1   
    22     7    47 1   
    23     8    32 1   
    24     8    40 1   
    25     8   105 1   
    26     9   106 2   
    27    10    11 1   
    28    10    56 1   
    29    10    57 1   
    30    10   106 1   
    31    11    13 1   
    32    11    14 1   
    33    12    15 1   
    34    12    16 1   
    35    13    15 1   
    36    13    58 1   
    37    13    59 1   
    38    14    16 1   
    39    14    60 1   
    40    14    61 1   
    41    15    62 1   
    42    15    63 1   
    43    16    64 1   
    44    16    65 1   
    45    17    18 1   
    46    17    66 1   
    47    17   106 1   
    48    18    67 1   
    49    20    68 1   
    50    21    22 1   
    51    21    69 1   
    52    22    23 1   
    53    22    29 1   
    54    22    70 1   
    55    23    24 1   
    56    23    71 1   
    57    23    72 1   
    58    25    26 1   
    59    25    28 ar  
    60    26    27 1   
    61    27    73 1   
    62    27    74 1   
    63    27    75 1   
    64    28    76 1   
    65    29    30 2   
    66    29    31 1   
    67    31    32 1   
    68    31    77 1   
    69    32    33 1   
    70    32    78 1   
    71    33    34 1   
    72    33    79 1   
    73    33    80 1   
    74    34    35 1   
    75    34    39 1   
    76    34    81 1   
    77    35    36 1   
    78    35    82 1   
    79    35    83 1   
    80    36    37 1   
    81    36    84 1   
    82    36    85 1   
    83    37    38 1   
    84    37    86 1   
    85    37    87 1   
    86    38    39 1   
    87    38    88 1   
    88    38    89 1   
    89    39    90 1   
    90    39    91 1   
    91    40    41 1   
    92    41    42 1   
    93    41    43 1   
    94    41    93 1   
    95    42    94 1   
    96    42    95 1   
    97    42    96 1   
    98    43    44 1   
    99    43    97 1   
   100    43   107 1   
   101    44    45 1   
   102    44    98 1   
   103    45    99 1   
   104    45   100 1   
   105    46   101 1   
   106    46   102 1   
   107    46   103 1   
   108    47   104 1   
   109    55   107 1   
   110    92   105 1   
   111   107   108 2   
@<TRIPOS>SUBSTRUCTURE
     1 A1I         1 TEMP              0 ****  ****    0 ROOT
