@<TRIPOS>MOLECULE
A1I
  103   105     1     0     0
SMALL
abcg2


@<TRIPOS>ATOM
      1 N1           9.5950  -137.3260    20.0600 n          1 A1I      -0.387800
      2 C6           8.4230  -138.5360    18.4040 c5         1 A1I      -0.143400
      3 C7           9.7930  -138.3850    19.0870 c5         1 A1I       0.029700
      4 C8          10.8330  -137.9770    18.0520 c          1 A1I       0.601100
      5 C10         12.2150  -138.8050    16.2420 c3         1 A1I       0.026700
      6 N12         11.8270  -137.7520    14.0850 ns         1 A1I      -0.493900
      7 C13         11.0880  -137.1100    13.0060 c3         1 A1I       0.114700
      8 C15         11.8110  -138.9500    11.2840 c3         1 A1I       0.152000
      9 C20         10.9880  -135.6000    13.2640 c3         1 A1I      -0.088400
     10 C21         10.2300  -135.2140    14.5340 c6         1 A1I      -0.065700
     11 C22         10.3980  -133.7200    14.8190 c6         1 A1I      -0.070400
     12 C24          8.1940  -133.6640    16.0390 c6         1 A1I      -0.074400
     13 C26          8.7430  -135.5660    14.4750 c6         1 A1I      -0.070400
     14 C28         13.0090  -140.0670    15.9000 c3         1 A1I      -0.087400
     15 N41         13.8540  -134.2570    26.7420 n2         1 A1I      -0.198400
     16 N40         13.3690  -134.8220    25.8440 n1         1 A1I       0.228000
     17 N39         13.0550  -135.3810    24.8840 n2         1 A1I      -0.070200
     18 C38         12.2960  -136.6340    24.8090 c3         1 A1I       0.020800
     19 O42         10.3760  -137.4480    23.7400 o          1 A1I      -0.514100
     20 N36         11.3580  -135.6670    22.7620 ns         1 A1I      -0.468900
     21 C34         10.4470  -135.6540    21.6420 c3         1 A1I       0.033700
     22 C35         10.7140  -134.4300    20.7710 c3         1 A1I      -0.108100
     23 C33         10.6410  -136.9170    20.8030 c          1 A1I       0.609100
     24 O43         11.7160  -137.4900    20.7590 o          1 A1I      -0.594100
     25 C2           8.2610  -136.7640    20.0160 c5         1 A1I       0.048000
     26 C3           7.4750  -137.9040    19.3960 c5         1 A1I       0.180000
     27 F4           6.3120  -137.4840    18.8450 f          1 A1I      -0.100000
     28 F5           7.1310  -138.8080    20.3600 f          1 A1I      -0.100000
     29 O32         11.0200  -136.8080    17.7630 o          1 A1I      -0.601100
     30 N9          11.4570  -138.9990    17.4500 ns         1 A1I      -0.468900
     31 C30         14.8440  -141.6860    16.6050 c3         1 A1I      -0.076400
     32 C31         15.7330  -141.5130    15.3800 c3         1 A1I      -0.093100
     33 C11         11.2580  -138.4440    15.0950 c          1 A1I       0.578100
     34 O27         10.0980  -138.8150    15.1050 o          1 A1I      -0.605100
     35 C23          9.6730  -133.2990    16.0940 c6         1 A1I      -0.071900
     36 C25          8.0100  -135.1490    15.7470 c6         1 A1I      -0.071900
     37 C14         11.7640  -137.4250    11.6530 c3         1 A1I       0.388000
     38 O19         13.0370  -136.8950    11.7090 oh         1 A1I      -0.685000
     39 OG1         10.9360  -136.8140    10.6660 os         1 A1I      -0.499000
     40 CB          11.5280  -136.0450     9.6410 c3         1 A1I       0.196300
     41 CG2         10.4090  -135.2570     8.9880 c3         1 A1I      -0.095100
     42 CA          12.2630  -136.9540     8.6180 c3         1 A1I       0.015500
     43 C           13.1850  -136.1190     7.7730 c          1 A1I       0.567900
     44 O           14.3540  -136.3580     7.6050 o          1 A1I      -0.498100
     45 N           12.9820  -138.0250     9.2720 n7         1 A1I      -0.892400
     46 C16         12.1100  -139.0790     9.7810 c3         1 A1I       0.169800
     47 C18         10.4940  -139.6670    11.5670 c3         1 A1I      -0.121100
     48 O17         12.8830  -139.5930    11.9450 oh         1 A1I      -0.714000
     49 H1           8.3840  -137.9680    17.4730 hc         1 A1I       0.103700
     50 H2           8.1780  -139.5730    18.1820 hc         1 A1I       0.103700
     51 H3          10.0870  -139.3140    19.5830 h1         1 A1I       0.090700
     52 H4          12.9220  -137.9850    16.3990 h1         1 A1I       0.084700
     53 H5          12.7530  -137.3830    14.2530 hn         1 A1I       0.320500
     54 H6          10.0880  -137.5430    12.9930 h1         1 A1I       0.094700
     55 H7          11.9990  -135.1850    13.3210 hc         1 A1I       0.058200
     56 H8          10.5030  -135.1220    12.4090 hc         1 A1I       0.058200
     57 H9          10.6690  -135.7490    15.3840 hc         1 A1I       0.055700
     58 H10         11.4610  -133.4750    14.8950 hc         1 A1I       0.041700
     59 H11         10.0080  -133.1450    13.9700 hc         1 A1I       0.041700
     60 H12          7.7020  -133.3980    16.9780 hc         1 A1I       0.035700
     61 H13          7.7050  -133.0770    15.2540 hc         1 A1I       0.035700
     62 H14          8.2910  -135.0610    13.6130 hc         1 A1I       0.041700
     63 H15          8.6080  -136.6380    14.3150 hc         1 A1I       0.041700
     64 H16         12.3160  -140.8980    15.7300 hc         1 A1I       0.059200
     65 H17         13.5230  -139.8910    14.9540 hc         1 A1I       0.059200
     66 H18         13.2830  -133.5170    27.1720 hn         1 A1I       0.528400
     67 H19         11.8320  -136.8550    25.7700 h1         1 A1I       0.140200
     68 H20         13.0340  -137.4050    24.5730 h1         1 A1I       0.140200
     69 H21         12.1600  -135.0560    22.7320 hn         1 A1I       0.331500
     70 H22          9.4280  -135.6000    22.0300 h1         1 A1I       0.086700
     71 H23         10.5910  -133.5180    21.3560 hc         1 A1I       0.064700
     72 H24         11.7260  -134.4520    20.3670 hc         1 A1I       0.064700
     73 H25         10.0180  -134.3860    19.9350 hc         1 A1I       0.064700
     74 H26          8.2020  -135.8830    19.3700 h1         1 A1I       0.078700
     75 H27          7.8790  -136.5020    21.0030 h1         1 A1I       0.078700
     76 H28         11.1800  -139.9410    17.6880 hn         1 A1I       0.325500
     77 H29         14.7120  -139.6010    17.1260 hc         1 A1I       0.041700
     78 H30         13.5280  -140.6190    17.9190 hc         1 A1I       0.041700
     79 H31         14.1650  -142.5310    16.4520 hc         1 A1I       0.041200
     80 H32         15.4670  -141.9520    17.4630 hc         1 A1I       0.041200
     81 H33         16.3490  -142.3970    15.2160 hc         1 A1I       0.036700
     82 H34         15.1560  -141.3490    14.4700 hc         1 A1I       0.036700
     83 H35         16.4050  -140.6610    15.5020 hc         1 A1I       0.036700
     84 H36         10.1370  -133.7970    16.9530 hc         1 A1I       0.034450
     85 H37          9.7940  -132.2250    16.2580 hc         1 A1I       0.034450
     86 H38          6.9480  -135.3930    15.6660 hc         1 A1I       0.034450
     87 H39          8.3970  -135.7300    16.5920 hc         1 A1I       0.034450
     88 H40         13.5070  -137.2360    10.9180 ho         1 A1I       0.505000
     89 H41         12.2480  -135.3390    10.0700 h1         1 A1I       0.054700
     90 H42          9.9290  -134.6040     9.7160 hc         1 A1I       0.048367
     91 H43         10.7880  -134.6250     8.1850 hc         1 A1I       0.048367
     92 H44          9.6530  -135.9200     8.5650 hc         1 A1I       0.048367
     93 H45         11.4970  -137.3460     7.9230 h1         1 A1I       0.055700
     94 H46         12.7090  -135.2520     7.2840 h4         1 A1I      -0.001800
     95 H47         13.6790  -138.4080     8.6480 hn         1 A1I       0.453000
     96 H49         11.1700  -139.1070     9.2180 h1         1 A1I       0.055700
     97 H50         12.5920  -140.0450     9.6240 h1         1 A1I       0.055700
     98 H51         10.3060  -139.7840    12.6340 hc         1 A1I       0.051033
     99 H52          9.6470  -139.1370    11.1320 hc         1 A1I       0.051033
    100 H53         10.5190  -140.6670    11.1280 hc         1 A1I       0.051033
    101 H54         12.7750  -139.4580    12.8920 ho         1 A1I       0.508000
    102 C29         14.0320  -140.4450    16.9650 c3         1 A1I      -0.073400
    103 C37         11.2460  -136.6020    23.7070 c          1 A1I       0.613100
@<TRIPOS>BOND
     1     1     3 1   
     2     1    23 1   
     3     1    25 1   
     4     2     3 1   
     5     2    26 1   
     6     2    49 1   
     7     2    50 1   
     8     3     4 1   
     9     3    51 1   
    10     4    29 2   
    11     4    30 1   
    12     5    14 1   
    13     5    30 1   
    14     5    33 1   
    15     5    52 1   
    16     6     7 1   
    17     6    33 1   
    18     6    53 1   
    19     7     9 1   
    20     7    37 1   
    21     7    54 1   
    22     8    37 1   
    23     8    46 1   
    24     8    47 1   
    25     8    48 1   
    26     9    10 1   
    27     9    55 1   
    28     9    56 1   
    29    10    11 1   
    30    10    13 1   
    31    10    57 1   
    32    11    35 1   
    33    11    58 1   
    34    11    59 1   
    35    12    35 1   
    36    12    36 1   
    37    12    60 1   
    38    12    61 1   
    39    13    36 1   
    40    13    62 1   
    41    13    63 1   
    42    14    64 1   
    43    14    65 1   
    44    14   102 1   
    45    15    16 2   
    46    15    66 1   
    47    16    17 2   
    48    17    18 1   
    49    18    67 1   
    50    18    68 1   
    51    18   103 1   
    52    19   103 2   
    53    20    21 1   
    54    20    69 1   
    55    20   103 1   
    56    21    22 1   
    57    21    23 1   
    58    21    70 1   
    59    22    71 1   
    60    22    72 1   
    61    22    73 1   
    62    23    24 2   
    63    25    26 1   
    64    25    74 1   
    65    25    75 1   
    66    26    27 1   
    67    26    28 1   
    68    30    76 1   
    69    31    32 1   
    70    31    79 1   
    71    31    80 1   
    72    31   102 1   
    73    32    81 1   
    74    32    82 1   
    75    32    83 1   
    76    33    34 2   
    77    35    84 1   
    78    35    85 1   
    79    36    86 1   
    80    36    87 1   
    81    37    38 1   
    82    37    39 1   
    83    38    88 1   
    84    39    40 1   
    85    40    41 1   
    86    40    42 1   
    87    40    89 1   
    88    41    90 1   
    89    41    91 1   
    90    41    92 1   
    91    42    43 1   
    92    42    45 1   
    93    42    93 1   
    94    43    44 2   
    95    43    94 1   
    96    45    46 1   
    97    45    95 1   
    98    46    96 1   
    99    46    97 1   
   100    47    98 1   
   101    47    99 1   
   102    47   100 1   
   103    48   101 1   
   104    77   102 1   
   105    78   102 1   
@<TRIPOS>SUBSTRUCTURE
     1 A1I         1 TEMP              0 ****  ****    0 ROOT
