@<TRIPOS>MOLECULE
A1I
  108   111     1     0     0
SMALL
abcg2


@<TRIPOS>ATOM
      1 C1          60.2980  -134.6150    37.5400 c          1 A1I       0.595100
      2 C2          58.5870  -138.0420    37.5620 ca         1 A1I      -0.057000
      3 C3          61.8570  -132.9800    36.4500 c3         1 A1I      -0.096400
      4 C4          63.0360  -133.3560    37.3310 c3         1 A1I       0.165600
      5 C5          57.3320  -138.0270    36.9620 ca         1 A1I      -0.160500
      6 C7          57.6610  -137.1590    39.5710 ca         1 A1I      -0.057000
      7 C11         63.4870  -138.0010    43.4410 c3         1 A1I       0.087000
      8 C21         63.1820  -136.4560    43.5590 c3         1 A1I       0.382000
      9 O           58.9720  -135.7360    35.0090 o          1 A1I      -0.581100
     10 CA          57.8350  -133.8930    33.9700 c3         1 A1I       0.088800
     11 NB          56.5270  -134.1540    34.5290 n3         1 A1I      -0.692600
     12 OZ          53.9380  -133.3570    35.3890 os         1 A1I      -0.451000
     13 CD1         56.3270  -133.4330    35.7770 c6         1 A1I       0.117800
     14 CD2         55.4810  -133.8070    33.5810 c6         1 A1I       0.117800
     15 CE1         54.9370  -133.6990    36.3230 c6         1 A1I       0.153100
     16 CE2         54.1160  -134.0700    34.1870 c6         1 A1I       0.153100
     17 N           59.8340  -133.6840    35.3270 ns         1 A1I      -0.496900
     18 CA1         60.8810  -134.1350    36.2060 c3         1 A1I       0.042700
     19 O1          59.3940  -134.0100    38.0920 o          1 A1I      -0.600100
     20 O3          63.9580  -132.2900    37.2990 oh         1 A1I      -0.664000
     21 N1          60.9070  -135.6960    38.0550 ns         1 A1I      -0.482900
     22 CA2         60.7450  -136.1480    39.4120 c3         1 A1I       0.029700
     23 CB          60.1440  -137.5620    39.4830 c3         1 A1I      -0.025100
     24 CG          58.7780  -137.6090    38.8650 ca         1 A1I      -0.130300
     25 CZ          56.2320  -137.5650    37.6760 ca         1 A1I       0.142100
     26 OH          54.9780  -137.4960    37.1830 os         1 A1I      -0.346100
     27 CM          54.7760  -137.8190    35.8230 c3         1 A1I       0.143900
     28 C6          56.4050  -137.1350    38.9940 ca         1 A1I      -0.160500
     29 C8          62.1140  -136.1170    40.0970 c          1 A1I       0.579100
     30 O2          63.1390  -136.2860    39.4520 o          1 A1I      -0.624100
     31 N4          62.0810  -135.9310    41.4210 ns         1 A1I      -0.487900
     32 C31         63.2610  -135.6730    42.2200 c3         1 A1I       0.131700
     33 C48         63.4220  -134.1480    42.4200 c3         1 A1I      -0.076400
     34 C49         64.8570  -133.6270    42.3230 c6         1 A1I      -0.054700
     35 C54         65.3130  -133.5120    40.8670 c6         1 A1I      -0.075400
     36 C53         66.7270  -132.9530    40.7520 c6         1 A1I      -0.072900
     37 C52         66.8480  -131.6070    41.4560 c6         1 A1I      -0.075400
     38 C51         66.4040  -131.7100    42.9110 c6         1 A1I      -0.072900
     39 C50         64.9920  -132.2750    43.0220 c6         1 A1I      -0.075400
     40 OG1         64.1600  -135.8120    44.3390 os         1 A1I      -0.488000
     41 CB1         64.4140  -136.1720    45.6810 c3         1 A1I       0.162300
     42 CG2         64.5790  -134.8850    46.4700 c3         1 A1I      -0.099100
     43 CA3         65.6880  -137.0520    45.6570 c3         1 A1I       0.074500
     44 N2          65.5670  -138.2560    44.8930 n7         1 A1I      -0.961400
     45 C56         65.0060  -138.2690    43.5690 c3         1 A1I       0.194800
     46 C57         62.9930  -138.6370    42.1490 c3         1 A1I      -0.084100
     47 O58         62.7760  -138.6660    44.4770 oh         1 A1I      -0.732000
     48 H1          59.4320  -138.3990    36.9880 ha         1 A1I       0.108000
     49 H2          62.2330  -132.6550    35.4770 hc         1 A1I       0.066200
     50 H3          61.3180  -132.1350    36.8900 hc         1 A1I       0.066200
     51 H4          63.4870  -134.2870    36.9610 h1         1 A1I       0.026700
     52 H5          62.6990  -133.5530    38.3550 h1         1 A1I       0.026700
     53 H6          57.2400  -138.3690    35.9410 ha         1 A1I       0.123500
     54 H7          57.7750  -136.8170    40.5940 ha         1 A1I       0.108000
     55 H8          66.4490  -136.4930    47.6540 h4         1 A1I       0.000200
     56 H9          57.8910  -134.3470    32.9770 h1         1 A1I       0.047200
     57 H10         58.0170  -132.8140    33.8360 h1         1 A1I       0.047200
     58 H12         57.0570  -133.7600    36.5200 h1         1 A1I       0.045950
     59 H13         56.4670  -132.3470    35.6380 h1         1 A1I       0.045950
     60 H14         55.5930  -134.4140    32.6800 h1         1 A1I       0.045950
     61 H15         55.5470  -132.7490    33.2740 h1         1 A1I       0.045950
     62 H16         54.7700  -133.0960    37.2170 h1         1 A1I       0.054450
     63 H17         54.8510  -134.7560    36.6100 h1         1 A1I       0.054450
     64 H18         53.3350  -133.7490    33.4960 h1         1 A1I       0.054450
     65 H19         53.9940  -135.1490    34.3560 h1         1 A1I       0.054450
     66 H20         59.7000  -132.6910    35.2110 hn         1 A1I       0.322500
     67 H21         61.4250  -134.9530    35.7240 h1         1 A1I       0.074700
     68 H22         64.6700  -132.4910    37.9130 ho         1 A1I       0.450000
     69 H23         61.6510  -136.1270    37.5270 hn         1 A1I       0.329500
     70 H24         60.0670  -135.4550    39.9140 h1         1 A1I       0.093700
     71 H25         60.0960  -137.8640    40.5320 hc         1 A1I       0.054200
     72 H26         60.8170  -138.2630    38.9830 hc         1 A1I       0.054200
     73 H27         53.7210  -137.6540    35.6170 h1         1 A1I       0.042700
     74 H28         55.3670  -137.1770    35.1630 h1         1 A1I       0.042700
     75 H29         55.0170  -138.8640    35.6090 h1         1 A1I       0.042700
     76 H30         55.5510  -136.7800    39.5570 ha         1 A1I       0.123500
     77 H31         61.1920  -135.7420    41.8610 hn         1 A1I       0.331500
     78 H32         64.1200  -136.0460    41.6570 h1         1 A1I       0.088700
     79 H33         62.8310  -133.6480    41.6470 hc         1 A1I       0.051200
     80 H34         62.9740  -133.8440    43.3700 hc         1 A1I       0.051200
     81 H35         65.5280  -134.3280    42.8320 hc         1 A1I       0.058700
     82 H36         64.6190  -132.8480    40.3340 hc         1 A1I       0.039200
     83 H37         65.2520  -134.4830    40.3670 hc         1 A1I       0.039200
     84 H38         67.0070  -132.8570    39.6990 hc         1 A1I       0.037450
     85 H39         67.4350  -133.6600    41.1970 hc         1 A1I       0.037450
     86 H40         67.8750  -131.2370    41.3980 hc         1 A1I       0.038200
     87 H41         66.2230  -130.8700    40.9390 hc         1 A1I       0.038200
     88 H42         67.0950  -132.3640    43.4540 hc         1 A1I       0.037450
     89 H43         66.4570  -130.7320    43.3960 hc         1 A1I       0.037450
     90 H44         64.7100  -132.3800    44.0740 hc         1 A1I       0.039200
     91 H45         64.2790  -131.5680    42.5790 hc         1 A1I       0.039200
     92 H46         61.6780  -137.0920    44.5540 ho         1 A1I       0.475000
     93 H47         63.5850  -136.7420    46.1150 h1         1 A1I       0.037700
     94 H48         64.6720  -135.0760    47.5390 hc         1 A1I       0.048700
     95 H49         65.4610  -134.3300    46.1440 hc         1 A1I       0.048700
     96 H50         63.7060  -134.2500    46.3270 hc         1 A1I       0.048700
     97 H51         66.4760  -136.4100    45.2310 h1         1 A1I       0.084700
     98 H52         65.3980  -139.0840    45.4420 hn         1 A1I       0.468000
     99 H54         65.1980  -139.2650    43.1620 h1         1 A1I       0.066700
    100 H55         65.5460  -137.5700    42.9250 h1         1 A1I       0.066700
    101 H56         63.5240  -138.2620    41.2750 hc         1 A1I       0.053367
    102 H57         63.1760  -139.7120    42.2010 hc         1 A1I       0.053367
    103 H58         61.9260  -138.4890    41.9960 hc         1 A1I       0.053367
    104 H59         63.3340  -138.7390    45.2610 ho         1 A1I       0.510000
    105 O55         61.9150  -136.2720    44.0920 oh         1 A1I      -0.675000
    106 C           58.9240  -134.5310    34.8180 c          1 A1I       0.601100
    107 C9          66.1460  -137.3670    47.0560 c          1 A1I       0.570900
    108 O4          66.1960  -138.4800    47.5160 o          1 A1I      -0.509100
@<TRIPOS>BOND
     1     1    18 1   
     2     1    19 2   
     3     1    21 1   
     4     2     5 ar  
     5     2    24 ar  
     6     2    48 1   
     7     3     4 1   
     8     3    18 1   
     9     3    49 1   
    10     3    50 1   
    11     4    20 1   
    12     4    51 1   
    13     4    52 1   
    14     5    25 ar  
    15     5    53 1   
    16     6    24 ar  
    17     6    28 ar  
    18     6    54 1   
    19     7     8 1   
    20     7    45 1   
    21     7    46 1   
    22     7    47 1   
    23     8    32 1   
    24     8    40 1   
    25     8   105 1   
    26     9   106 2   
    27    10    11 1   
    28    10    56 1   
    29    10    57 1   
    30    10   106 1   
    31    11    13 1   
    32    11    14 1   
    33    12    15 1   
    34    12    16 1   
    35    13    15 1   
    36    13    58 1   
    37    13    59 1   
    38    14    16 1   
    39    14    60 1   
    40    14    61 1   
    41    15    62 1   
    42    15    63 1   
    43    16    64 1   
    44    16    65 1   
    45    17    18 1   
    46    17    66 1   
    47    17   106 1   
    48    18    67 1   
    49    20    68 1   
    50    21    22 1   
    51    21    69 1   
    52    22    23 1   
    53    22    29 1   
    54    22    70 1   
    55    23    24 1   
    56    23    71 1   
    57    23    72 1   
    58    25    26 1   
    59    25    28 ar  
    60    26    27 1   
    61    27    73 1   
    62    27    74 1   
    63    27    75 1   
    64    28    76 1   
    65    29    30 2   
    66    29    31 1   
    67    31    32 1   
    68    31    77 1   
    69    32    33 1   
    70    32    78 1   
    71    33    34 1   
    72    33    79 1   
    73    33    80 1   
    74    34    35 1   
    75    34    39 1   
    76    34    81 1   
    77    35    36 1   
    78    35    82 1   
    79    35    83 1   
    80    36    37 1   
    81    36    84 1   
    82    36    85 1   
    83    37    38 1   
    84    37    86 1   
    85    37    87 1   
    86    38    39 1   
    87    38    88 1   
    88    38    89 1   
    89    39    90 1   
    90    39    91 1   
    91    40    41 1   
    92    41    42 1   
    93    41    43 1   
    94    41    93 1   
    95    42    94 1   
    96    42    95 1   
    97    42    96 1   
    98    43    44 1   
    99    43    97 1   
   100    43   107 1   
   101    44    45 1   
   102    44    98 1   
   103    45    99 1   
   104    45   100 1   
   105    46   101 1   
   106    46   102 1   
   107    46   103 1   
   108    47   104 1   
   109    55   107 1   
   110    92   105 1   
   111   107   108 2   
@<TRIPOS>SUBSTRUCTURE
     1 A1I         1 TEMP              0 ****  ****    0 ROOT
