@<TRIPOS>MOLECULE
A1I
  134   138     1     0     0
SMALL
No Charge or Current Charge


@<TRIPOS>ATOM
      1 C1          62.7420  -136.0700    40.3600 c          1 A1I       0.585100
      2 C2          63.1520  -137.0230    43.9330 c3         1 A1I       0.378000
      3 C3          63.4990  -135.9780    42.7860 c3         1 A1I       0.141700
      4 C11         63.4540  -138.5530    43.5850 c3         1 A1I       0.086000
      5 C15         57.4040  -133.7060    34.9210 c6         1 A1I       0.142800
      6 C16         55.9610  -133.7760    35.4920 c6         1 A1I       0.109500
      7 C21         51.2460  -132.7820    34.3060 c3         1 A1I       0.225000
      8 C22         50.6520  -133.9930    35.0710 c3         1 A1I      -0.108100
      9 C25         55.1050  -133.6480    33.1120 c6         1 A1I       0.109500
     10 C26         56.5820  -133.5470    32.6470 c6         1 A1I       0.142800
     11 C13         58.9210  -134.2680    33.0150 c3         1 A1I       0.090800
     12 C24         51.0510  -131.4360    35.0510 c3         1 A1I      -0.108100
     13 C23         50.6240  -132.6960    32.8950 c3         1 A1I      -0.108100
     14 O20         52.6530  -133.0050    34.0590 os         1 A1I      -0.479100
     15 O19         53.3360  -133.0900    36.2650 o          1 A1I      -0.551000
     16 N17         54.8710  -133.3580    34.5610 n          1 A1I      -0.412800
     17 N14         57.5170  -134.2660    33.5470 n3         1 A1I      -0.701600
     18 C12         59.9960  -135.0820    33.7920 c          1 A1I       0.604100
     19 O27         60.2660  -136.2490    33.5320 o          1 A1I      -0.584100
     20 O           60.2860  -134.1620    37.5570 o          1 A1I      -0.598100
     21 CA          61.6710  -134.9470    35.7030 c3         1 A1I       0.036700
     22 N           60.6240  -134.3900    34.8080 ns         1 A1I      -0.481900
     23 CB          63.0190  -134.2120    35.5280 c3         1 A1I       0.145600
     24 OG          63.4380  -134.3510    34.1590 os         1 A1I      -0.447000
     25 C           64.6730  -133.6920    33.8410 c3         1 A1I       0.203900
     26 C7          64.9690  -133.9080    32.3630 ca         1 A1I      -0.089300
     27 C8          65.8210  -134.9530    31.9520 ca         1 A1I      -0.090500
     28 C9          66.0930  -135.1490    30.5860 ca         1 A1I      -0.113500
     29 C4          65.5140  -134.3040    29.6240 ca         1 A1I      -0.103000
     30 C5          64.6620  -133.2630    30.0280 ca         1 A1I      -0.113500
     31 C6          64.3900  -133.0650    31.3940 ca         1 A1I      -0.090500
     32 N1          61.8910  -135.7040    38.0450 ns         1 A1I      -0.489900
     33 CA1         61.4900  -135.9750    39.4460 c3         1 A1I       0.030700
     34 CB1         60.6280  -137.2640    39.5340 c3         1 A1I      -0.027100
     35 CG          59.4840  -137.2980    38.5240 ca         1 A1I      -0.132300
     36 CD1         58.2380  -136.7240    38.8380 ca         1 A1I      -0.063000
     37 CE1         57.1960  -136.7350    37.8940 ca         1 A1I      -0.158000
     38 CZ          57.3910  -137.3060    36.6260 ca         1 A1I       0.146100
     39 OH          56.3370  -137.2790    35.7360 os         1 A1I      -0.347100
     40 CM          56.4890  -137.6640    34.3580 c3         1 A1I       0.142900
     41 CE2         58.6380  -137.8830    36.3070 ca         1 A1I      -0.158000
     42 CD2         59.6750  -137.8840    37.2560 ca         1 A1I      -0.063000
     43 O1          63.8760  -136.2100    39.9230 o          1 A1I      -0.619100
     44 N4          62.4840  -135.9850    41.7110 ns         1 A1I      -0.492900
     45 C48         63.6540  -134.5050    43.2930 c3         1 A1I      -0.083400
     46 C49         64.0410  -133.4240    42.2310 c6         1 A1I      -0.059700
     47 C54         63.9120  -131.9930    42.8240 c6         1 A1I      -0.073400
     48 C53         64.2720  -130.9090    41.7780 c6         1 A1I      -0.072400
     49 C52         65.6930  -131.1320    41.2060 c6         1 A1I      -0.078400
     50 C51         65.8400  -132.5570    40.6200 c6         1 A1I      -0.072400
     51 C50         65.4780  -133.6350    41.6710 c6         1 A1I      -0.073400
     52 OG1         63.8950  -136.5990    45.1050 os         1 A1I      -0.488000
     53 CB2         63.8600  -137.3600    46.3340 c3         1 A1I       0.161300
     54 CG2         63.8510  -136.3000    47.4570 c3         1 A1I      -0.099100
     55 CA2         65.1150  -138.3070    46.3840 c3         1 A1I       0.074500
     56 N2          65.2230  -139.3150    45.2480 n7         1 A1I      -0.957400
     57 C56         64.9610  -138.8930    43.8360 c3         1 A1I       0.192800
     58 C57         63.0430  -138.9780    42.1520 c3         1 A1I      -0.085100
     59 O58         62.6650  -139.3880    44.4620 oh         1 A1I      -0.731000
     60 H1          64.4630  -136.2860    42.3620 h1         1 A1I       0.086700
     61 H2          65.6670  -138.3050    48.5890 h4         1 A1I      -0.000800
     62 H3          58.0630  -134.2450    35.6160 h1         1 A1I       0.045200
     63 H4          57.7260  -132.6540    34.9230 h1         1 A1I       0.045200
     64 H5          55.9220  -133.1620    36.4030 h1         1 A1I       0.064200
     65 H6          55.7600  -134.8090    35.8010 h1         1 A1I       0.064200
     66 H7          50.9640  -134.0100    36.1200 hc         1 A1I       0.048700
     67 H8          49.5560  -133.9510    35.0610 hc         1 A1I       0.048700
     68 H9          50.9580  -134.9370    34.6040 hc         1 A1I       0.048700
     69 H10         54.5110  -132.9630    32.4910 h1         1 A1I       0.064200
     70 H11         54.7450  -134.6660    32.9050 h1         1 A1I       0.064200
     71 H12         56.6510  -133.9450    31.6240 h1         1 A1I       0.045200
     72 H13         56.8570  -132.4830    32.5940 h1         1 A1I       0.045200
     73 H14         58.9200  -134.6690    31.9930 h1         1 A1I       0.048200
     74 H15         59.2900  -133.2370    32.9420 h1         1 A1I       0.048200
     75 H16         51.3550  -131.5000    36.1010 hc         1 A1I       0.048700
     76 H17         51.6310  -130.6390    34.5710 hc         1 A1I       0.048700
     77 H18         49.9950  -131.1410    35.0370 hc         1 A1I       0.048700
     78 H19         49.5420  -132.5270    32.9540 hc         1 A1I       0.048700
     79 H20         51.0650  -131.8710    32.3230 hc         1 A1I       0.048700
     80 H21         50.7920  -133.6260    32.3370 hc         1 A1I       0.048700
     81 H23         61.8250  -136.0080    35.4700 h1         1 A1I       0.096700
     82 H24         60.3130  -133.4400    34.9680 hn         1 A1I       0.322500
     83 H25         63.7680  -134.6460    36.2040 h1         1 A1I       0.037700
     84 H26         62.8940  -133.1530    35.7900 h1         1 A1I       0.037700
     85 H27         65.4950  -134.0960    34.4460 h1         1 A1I       0.032200
     86 H28         64.6010  -132.6150    34.0450 h1         1 A1I       0.032200
     87 H29         66.2710  -135.6130    32.6900 ha         1 A1I       0.114500
     88 H30         66.7510  -135.9570    30.2750 ha         1 A1I       0.113500
     89 H31         65.7250  -134.4570    28.5680 ha         1 A1I       0.113000
     90 H32         64.2120  -132.6090    29.2840 ha         1 A1I       0.113500
     91 H33         63.7270  -132.2590    31.6990 ha         1 A1I       0.114500
     92 H34         62.6710  -136.2300    37.6670 hn         1 A1I       0.331500
     93 H35         60.8940  -135.1290    39.8130 h1         1 A1I       0.090700
     94 H36         60.2310  -137.3650    40.5520 hc         1 A1I       0.057200
     95 H37         61.2790  -138.1340    39.3800 hc         1 A1I       0.057200
     96 H38         58.0770  -136.2650    39.8110 ha         1 A1I       0.107000
     97 H39         56.2370  -136.2900    38.1420 ha         1 A1I       0.124500
     98 H40         55.5490  -137.5090    33.8140 h1         1 A1I       0.044367
     99 H41         57.2670  -137.0630    33.8700 h1         1 A1I       0.044367
    100 H42         56.7590  -138.7240    34.2760 h1         1 A1I       0.044367
    101 H43         58.8210  -138.3330    35.3360 ha         1 A1I       0.124500
    102 H44         60.6330  -138.3290    37.0000 ha         1 A1I       0.107000
    103 H45         61.5140  -135.8990    41.9940 hn         1 A1I       0.331500
    104 H46         64.4100  -134.4690    44.0850 hc         1 A1I       0.060200
    105 H47         62.7090  -134.2200    43.7710 hc         1 A1I       0.060200
    106 H48         63.3230  -133.5070    41.4050 hc         1 A1I       0.045700
    107 H49         62.8860  -131.8250    43.1810 hc         1 A1I       0.042200
    108 H50         64.5670  -131.8900    43.7010 hc         1 A1I       0.042200
    109 H51         64.2080  -129.9120    42.2360 hc         1 A1I       0.035700
    110 H52         63.5380  -130.9250    40.9610 hc         1 A1I       0.035700
    111 H53         66.4390  -130.9790    41.9980 hc         1 A1I       0.038200
    112 H54         65.9040  -130.3850    40.4290 hc         1 A1I       0.038200
    113 H55         66.8690  -132.7100    40.2680 hc         1 A1I       0.035700
    114 H56         65.1900  -132.6660    39.7410 hc         1 A1I       0.035700
    115 H57         65.5760  -134.6270    41.2150 hc         1 A1I       0.042200
    116 H58         66.2070  -133.6030    42.4940 hc         1 A1I       0.042200
    117 H59         61.5850  -137.9150    44.4020 ho         1 A1I       0.475000
    118 H60         62.9320  -137.9360    46.4350 h1         1 A1I       0.038700
    119 H61         63.7140  -136.7640    48.4400 hc         1 A1I       0.048700
    120 H62         64.7880  -135.7290    47.4670 hc         1 A1I       0.048700
    121 H63         63.0230  -135.5960    47.3070 hc         1 A1I       0.048700
    122 H64         65.9820  -137.6350    46.3170 h1         1 A1I       0.085700
    123 H65         64.8750  -140.2610    45.4810 hn         1 A1I       0.467000
    124 H67         65.2650  -139.7010    43.1550 h1         1 A1I       0.066700
    125 H68         65.5790  -138.0220    43.5700 h1         1 A1I       0.066700
    126 H69         63.6890  -138.5130    41.3990 hc         1 A1I       0.054033
    127 H70         63.1370  -140.0650    42.0290 hc         1 A1I       0.054033
    128 H71         62.0010  -138.7130    41.9420 hc         1 A1I       0.054033
    129 H72         63.2750  -139.5310    45.2230 ho         1 A1I       0.510000
    130 O55         61.7610  -136.9610    44.2210 oh         1 A1I      -0.676000
    131 C14         65.2500  -138.9620    47.7940 c          1 A1I       0.569900
    132 C10         61.2040  -134.8790    37.1780 c          1 A1I       0.590100
    133 O2          64.9390  -140.1260    48.0380 o          1 A1I      -0.509100
    134 C18         53.5760  -133.1450    35.0680 c          1 A1I       0.659100
@<TRIPOS>BOND
     1     1    33 1   
     2     1    43 2   
     3     1    44 1   
     4     2     3 1   
     5     2     4 1   
     6     2    52 1   
     7     2   130 1   
     8     3    44 1   
     9     3    45 1   
    10     3    60 1   
    11     4    57 1   
    12     4    58 1   
    13     4    59 1   
    14     5     6 1   
    15     5    17 1   
    16     5    62 1   
    17     5    63 1   
    18     6    16 1   
    19     6    64 1   
    20     6    65 1   
    21     7     8 1   
    22     7    12 1   
    23     7    13 1   
    24     7    14 1   
    25     8    66 1   
    26     8    67 1   
    27     8    68 1   
    28     9    10 1   
    29     9    16 1   
    30     9    69 1   
    31     9    70 1   
    32    10    17 1   
    33    10    71 1   
    34    10    72 1   
    35    11    17 1   
    36    11    18 1   
    37    11    73 1   
    38    11    74 1   
    39    12    75 1   
    40    12    76 1   
    41    12    77 1   
    42    13    78 1   
    43    13    79 1   
    44    13    80 1   
    45    14   134 1   
    46    15   134 2   
    47    16   134 1   
    48    18    19 2   
    49    18    22 1   
    50    20   132 2   
    51    21    22 1   
    52    21    23 1   
    53    21    81 1   
    54    21   132 1   
    55    22    82 1   
    56    23    24 1   
    57    23    83 1   
    58    23    84 1   
    59    24    25 1   
    60    25    26 1   
    61    25    85 1   
    62    25    86 1   
    63    26    27 ar  
    64    26    31 ar  
    65    27    28 ar  
    66    27    87 1   
    67    28    29 ar  
    68    28    88 1   
    69    29    30 ar  
    70    29    89 1   
    71    30    31 ar  
    72    30    90 1   
    73    31    91 1   
    74    32    33 1   
    75    32    92 1   
    76    32   132 1   
    77    33    34 1   
    78    33    93 1   
    79    34    35 1   
    80    34    94 1   
    81    34    95 1   
    82    35    36 ar  
    83    35    42 ar  
    84    36    37 ar  
    85    36    96 1   
    86    37    38 ar  
    87    37    97 1   
    88    38    39 1   
    89    38    41 ar  
    90    39    40 1   
    91    40    98 1   
    92    40    99 1   
    93    40   100 1   
    94    41    42 ar  
    95    41   101 1   
    96    42   102 1   
    97    44   103 1   
    98    45    46 1   
    99    45   104 1   
   100    45   105 1   
   101    46    47 1   
   102    46    51 1   
   103    46   106 1   
   104    47    48 1   
   105    47   107 1   
   106    47   108 1   
   107    48    49 1   
   108    48   109 1   
   109    48   110 1   
   110    49    50 1   
   111    49   111 1   
   112    49   112 1   
   113    50    51 1   
   114    50   113 1   
   115    50   114 1   
   116    51   115 1   
   117    51   116 1   
   118    52    53 1   
   119    53    54 1   
   120    53    55 1   
   121    53   118 1   
   122    54   119 1   
   123    54   120 1   
   124    54   121 1   
   125    55    56 1   
   126    55   122 1   
   127    55   131 1   
   128    56    57 1   
   129    56   123 1   
   130    57   124 1   
   131    57   125 1   
   132    58   126 1   
   133    58   127 1   
   134    58   128 1   
   135    59   129 1   
   136    61   131 1   
   137   117   130 1   
   138   131   133 2   
@<TRIPOS>SUBSTRUCTURE
     1 A1I         1 TEMP              0 ****  ****    0 ROOT
