@<TRIPOS>MOLECULE
A1I
   16    16     1     0     0
SMALL
No Charge or Current Charge


@<TRIPOS>ATOM
      1 C2          23.0650    26.0030     1.9150 c5         1 A1I      -0.172400
      2 C3          22.0720    26.7920     2.8020 c5         1 A1I      -0.086400
      3 C4          22.3560    26.1710     4.2080 c5         1 A1I       0.109700
      4 C6          23.0030    24.6080     2.5210 c          1 A1I       0.560000
      5 C9          23.5210    26.8350     4.9750 c3         1 A1I      -0.114100
      6 N7          22.6740    24.7910     3.8380 ns         1 A1I      -0.514900
      7 O8          22.9580    23.5220     1.9660 o          1 A1I      -0.554000
      8 H1          24.0720    26.4020     2.0770 hc         1 A1I       0.074700
      9 H2          22.8400    25.9930     0.8440 hc         1 A1I       0.074700
     10 H3          22.2290    27.8770     2.7690 hc         1 A1I       0.056200
     11 H4          21.0370    26.6010     2.4950 hc         1 A1I       0.056200
     12 H5          21.4580    26.2260     4.8400 h1         1 A1I       0.058700
     13 H6          23.6920    26.3310     5.9330 hc         1 A1I       0.043033
     14 H7          24.4580    26.8000     4.4070 hc         1 A1I       0.043033
     15 H8          23.2970    27.8870     5.1880 hc         1 A1I       0.043033
     16 H9          22.4720    23.9720     4.4000 hn         1 A1I       0.323500
@<TRIPOS>BOND
     1     1     2 1   
     2     1     4 1   
     3     1     8 1   
     4     1     9 1   
     5     2     3 1   
     6     2    10 1   
     7     2    11 1   
     8     3     5 1   
     9     3     6 1   
    10     3    12 1   
    11     4     6 1   
    12     4     7 2   
    13     5    13 1   
    14     5    14 1   
    15     5    15 1   
    16     6    16 1   
@<TRIPOS>SUBSTRUCTURE
     1 A1I         1 TEMP              0 ****  ****    0 ROOT
