@<TRIPOS>MOLECULE
A1I
   16    16     1     0     0
SMALL
abcg2


@<TRIPOS>ATOM
      1 C2          22.9730    25.9710     1.8690 c5         1 A1I      -0.172400
      2 C3          22.1540    26.8520     2.8080 c5         1 A1I      -0.086400
      3 C4          22.3180    26.1900     4.1860 c5         1 A1I       0.109700
      4 C6          22.9950    24.6190     2.5560 c          1 A1I       0.560000
      5 C9          23.4620    26.7730     5.0040 c3         1 A1I      -0.114100
      6 N7          22.5600    24.8060     3.8160 ns         1 A1I      -0.514900
      7 O8          23.3510    23.5580     2.0700 o          1 A1I      -0.554000
      8 H1          24.0040    26.3190     1.7660 hc         1 A1I       0.074700
      9 H2          22.5600    25.8940     0.8640 hc         1 A1I       0.074700
     10 H3          22.4760    27.8930     2.8160 hc         1 A1I       0.056200
     11 H4          21.1030    26.8350     2.5140 hc         1 A1I       0.056200
     12 H5          21.3940    26.2570     4.7640 h1         1 A1I       0.058700
     13 H6          23.6270    26.1990     5.9170 hc         1 A1I       0.043033
     14 H7          24.3930    26.7770     4.4340 hc         1 A1I       0.043033
     15 H8          23.2370    27.8000     5.2920 hc         1 A1I       0.043033
     16 H9          22.5980    24.0680     4.5030 hn         1 A1I       0.323500
@<TRIPOS>BOND
     1     1     2 1   
     2     1     4 1   
     3     1     8 1   
     4     1     9 1   
     5     2     3 1   
     6     2    10 1   
     7     2    11 1   
     8     3     5 1   
     9     3     6 1   
    10     3    12 1   
    11     4     6 1   
    12     4     7 2   
    13     5    13 1   
    14     5    14 1   
    15     5    15 1   
    16     6    16 1   
@<TRIPOS>SUBSTRUCTURE
     1 A1I         1 TEMP              0 ****  ****    0 ROOT
