@<TRIPOS>MOLECULE
A1I
  104   111     1     0     0
SMALL
abcg2


@<TRIPOS>ATOM
      1 C1B         -6.8830    72.5730    88.6950 c5         1 A1I       0.266300
      2 C2B         -7.1840    71.6720    87.4890 c5         1 A1I       0.132300
      3 O2B         -7.7580    72.3380    86.4090 oh         1 A1I      -0.681000
      4 C3B         -8.1170    70.6470    88.1150 c5         1 A1I       0.145300
      5 O3B         -9.3970    71.2210    88.2000 oh         1 A1I      -0.722000
      6 C4B         -7.4700    70.4680    89.4920 c5         1 A1I       0.106300
      7 O4B         -6.8570    71.7220    89.8060 os         1 A1I      -0.462000
      8 C5B         -6.4100    69.3770    89.5440 c3         1 A1I       0.217600
      9 O5B         -7.0500    68.1220    89.4400 os         1 A1I      -0.585400
     10 CAA         -5.6940    55.5430    84.2850 ca         1 A1I      -0.065000
     11 PA          -6.5200    67.0320    88.3440 p5         1 A1I       1.473800
     12 CAB         -6.8270    55.7160    83.4930 ca         1 A1I      -0.105300
     13 O2A         -7.3470    65.7990    88.6100 o          1 A1I      -0.836500
     14 CAC         -5.5620    54.4560    85.1360 ca         1 A1I      -0.148000
     15 O1A         -6.4610    67.6440    86.9820 o          1 A1I      -0.836500
     16 CAD         -7.8390    54.7610    83.5750 ca         1 A1I      -0.065000
     17 CAE         -6.5890    53.5340    85.1860 ca         1 A1I       0.181000
     18 FAE         -6.4720    52.4690    85.9930 f          1 A1I      -0.183000
     19 CAF         -7.7310    53.6690    84.4210 ca         1 A1I      -0.148000
     20 N9A         -5.6300    73.2780    88.6010 na         1 A1I      -0.280300
     21 C4A         -5.4570    74.6340    88.6140 ca         1 A1I       0.122500
     22 N3A         -6.3840    75.5850    88.6920 nb         1 A1I      -0.203000
     23 C2A         -5.8480    76.7930    88.6750 ca         1 A1I       0.159900
     24 N1A         -4.5640    77.1270    88.5910 nb         1 A1I      -0.321000
     25 C6A         -3.6430    76.1600    88.5130 ca         1 A1I       0.440900
     26 N6A         -2.3540    76.4900    88.4260 nv         1 A1I      -1.078900
     27 C5A         -4.0870    74.8250    88.5240 ca         1 A1I      -0.094600
     28 N7A         -3.4290    73.6230    88.4670 nc         1 A1I      -0.578100
     29 C8A         -4.3750    72.7340    88.5150 cd         1 A1I       0.439700
     30 O3P         -4.9680    66.7840    88.7960 os         1 A1I      -0.724800
     31 P           -4.3950    65.9160    90.0880 p5         1 A1I       1.459800
     32 O1P         -2.9080    66.0310    89.9930 o          1 A1I      -0.840500
     33 O2P         -5.1510    66.2660    91.3260 o          1 A1I      -0.840500
     34 O5          -4.8730    64.4000    89.6960 os         1 A1I      -0.594400
     35 C5          -4.3180    63.7230    88.5840 c3         1 A1I       0.206600
     36 C4          -5.4170    62.9250    87.8980 c3         1 A1I       0.167300
     37 O4          -6.3670    63.7660    87.2880 oh         1 A1I      -0.841000
     38 C3          -4.8380    62.0150    86.8010 c3         1 A1I       0.122300
     39 O3          -3.9800    61.0500    87.3750 oh         1 A1I      -0.674000
     40 C2          -5.9270    61.2440    86.0370 c3         1 A1I       0.171300
     41 O2          -6.8100    62.0910    85.3520 oh         1 A1I      -0.763000
     42 C1          -5.2610    60.3050    85.0220 c3         1 A1I       0.218800
     43 N10         -6.1560    59.8710    83.9500 nh         1 A1I      -0.690400
     44 C10         -6.9660    58.8390    84.1950 c2         1 A1I       0.727200
     45 N1          -7.0270    58.3360    85.3890 ne         1 A1I      -0.750100
     46 C12         -8.0250    57.4740    85.7250 c          1 A1I       0.740400
     47 O7          -8.0610    56.8790    86.7800 o          1 A1I      -0.511000
     48 N3          -9.1090    57.3690    84.8430 ns         1 A1I      -0.495500
     49 C11         -9.0830    57.7660    83.5490 c          1 A1I       0.590000
     50 O6         -10.0460    57.7120    82.8170 o          1 A1I      -0.550000
     51 C4X         -7.7000    58.1900    83.0620 c5         1 A1I       0.057900
     52 N5          -7.7910    58.9560    81.8530 nh         1 A1I      -0.819400
     53 C9A         -6.2610    60.6160    82.7500 ca         1 A1I       0.256000
     54 C5X         -7.1160    60.1660    81.7430 ca         1 A1I       0.260000
     55 C9          -5.5630    61.8030    82.5560 ca         1 A1I      -0.075000
     56 C6          -7.2610    60.9340    80.5900 ca         1 A1I      -0.129000
     57 C7          -6.5490    62.1070    80.3880 ca         1 A1I      -0.072300
     58 C7M         -6.7280    62.8910    79.1230 c3         1 A1I      -0.039800
     59 CBZ         -6.9070    56.9050    82.5820 c5         1 A1I      -0.027400
     60 CCA         -7.5430    56.6800    81.2170 c5         1 A1I      -0.126400
     61 CCB         -7.8440    58.0840    80.6770 c5         1 A1I       0.453500
     62 OCC         -9.0330    58.1830    79.9600 oh         1 A1I      -0.654000
     63 C8          -5.6770    62.5460    81.3890 ca         1 A1I      -0.073300
     64 H1B         -7.6580    73.3410    88.7920 h2         1 A1I       0.102700
     65 H2B         -6.2640    71.1480    87.1950 h1         1 A1I       0.071700
     66 HO2A        -7.0590    72.7820    85.9190 ho         1 A1I       0.496000
     67 H3B         -8.1260    69.7090    87.5490 h1         1 A1I       0.119700
     68 HO3A        -9.9830    70.5890    88.6290 ho         1 A1I       0.505000
     69 H4B         -8.2310    70.2530    90.2490 h1         1 A1I       0.082700
     70 H51A        -5.8770    69.4320    90.4970 h1         1 A1I       0.039700
     71 H52A        -5.6710    69.5350    88.7520 h1         1 A1I       0.039700
     72 H1          -4.8890    56.2660    84.2340 ha         1 A1I       0.120500
     73 H11         -4.6740    54.3270    85.7400 ha         1 A1I       0.131500
     74 H12         -8.7350    54.8490    82.9740 ha         1 A1I       0.120500
     75 H13         -8.5200    52.9310    84.4760 ha         1 A1I       0.131500
     76 H2A         -6.5430    77.6240    88.7380 h5         1 A1I       0.032100
     77 H61A        -2.0740    77.4560    88.4390 hn         1 A1I       0.499500
     78 H62A        -1.6380    75.7860    88.3860 hn         1 A1I       0.499500
     79 H8A         -4.2210    71.6660    88.4990 h5         1 A1I       0.094800
     80 H5'1        -3.5220    63.0570    88.9270 h1         1 A1I       0.014200
     81 H5'2        -3.8750    64.4120    87.8550 h1         1 A1I       0.014200
     82 H4          -5.8910    62.2730    88.6510 h1         1 A1I       0.043700
     83 HO4         -6.7310    64.4660    87.8960 ho         1 A1I       0.626000
     84 H3          -4.3000    62.6440    86.0750 h1         1 A1I       0.033700
     85 HO3         -3.0720    61.3590    87.3160 ho         1 A1I       0.439000
     86 H2          -6.4690    60.6230    86.7670 h1         1 A1I       0.065700
     87 HO2         -6.9590    62.8510    85.9430 ho         1 A1I       0.578000
     88 H1'1        -4.9000    59.4140    85.5260 h1         1 A1I       0.062200
     89 H1'2        -4.3950    60.7740    84.5570 h1         1 A1I       0.062200
     90 HN3         -9.9440    56.9120    85.1880 hn         1 A1I       0.330500
     91 H9          -4.9100    62.1860    83.3250 ha         1 A1I       0.140000
     92 H6          -7.9570    60.6080    79.8280 ha         1 A1I       0.125000
     93 HM71        -7.0860    63.9030    79.3230 hc         1 A1I       0.037700
     94 HM72        -5.7870    62.9940    78.5790 hc         1 A1I       0.037700
     95 HM73        -7.4450    62.4120    78.4570 hc         1 A1I       0.037700
     96 H35         -5.8880    57.2730    82.4230 hc         1 A1I       0.069700
     97 H36         -8.4600    56.0920    81.2780 hc         1 A1I       0.062200
     98 H37         -6.8640    56.1440    80.5540 hc         1 A1I       0.062200
     99 H38         -7.0590    58.3930    79.9830 h2         1 A1I       0.075700
    100 H39         -9.7580    57.9680    80.5620 ho         1 A1I       0.475000
    101 HM81        -5.5470    64.6800    81.0970 hc         1 A1I       0.044367
    102 HM82        -4.2550    64.0060    82.0850 hc         1 A1I       0.044367
    103 HM83        -4.2520    63.7760    80.3390 hc         1 A1I       0.044367
    104 C8M         -4.8920    63.8150    81.2220 c3         1 A1I      -0.043800
@<TRIPOS>BOND
     1     1     2 1   
     2     1     7 1   
     3     1    20 1   
     4     1    64 1   
     5     2     3 1   
     6     2     4 1   
     7     2    65 1   
     8     3    66 1   
     9     4     5 1   
    10     4     6 1   
    11     4    67 1   
    12     5    68 1   
    13     6     7 1   
    14     6     8 1   
    15     6    69 1   
    16     8     9 1   
    17     8    70 1   
    18     8    71 1   
    19     9    11 1   
    20    10    12 ar  
    21    10    14 ar  
    22    10    72 1   
    23    11    13 1   
    24    11    15 1   
    25    11    30 1   
    26    12    16 ar  
    27    12    59 1   
    28    14    17 ar  
    29    14    73 1   
    30    16    19 ar  
    31    16    74 1   
    32    17    18 1   
    33    17    19 ar  
    34    19    75 1   
    35    20    21 1   
    36    20    29 1   
    37    21    22 ar  
    38    21    27 ar  
    39    22    23 ar  
    40    23    24 ar  
    41    23    76 1   
    42    24    25 ar  
    43    25    26 1   
    44    25    27 ar  
    45    26    77 1   
    46    26    78 1   
    47    27    28 1   
    48    28    29 2   
    49    29    79 1   
    50    30    31 1   
    51    31    32 1   
    52    31    33 1   
    53    31    34 1   
    54    34    35 1   
    55    35    36 1   
    56    35    80 1   
    57    35    81 1   
    58    36    37 1   
    59    36    38 1   
    60    36    82 1   
    61    37    83 1   
    62    38    39 1   
    63    38    40 1   
    64    38    84 1   
    65    39    85 1   
    66    40    41 1   
    67    40    42 1   
    68    40    86 1   
    69    41    87 1   
    70    42    43 1   
    71    42    88 1   
    72    42    89 1   
    73    43    44 1   
    74    43    53 1   
    75    44    45 2   
    76    44    51 1   
    77    45    46 1   
    78    46    47 2   
    79    46    48 1   
    80    48    49 1   
    81    48    90 1   
    82    49    50 2   
    83    49    51 1   
    84    51    52 1   
    85    51    59 1   
    86    52    54 1   
    87    52    61 1   
    88    53    54 ar  
    89    53    55 ar  
    90    54    56 ar  
    91    55    63 ar  
    92    55    91 1   
    93    56    57 ar  
    94    56    92 1   
    95    57    58 1   
    96    57    63 ar  
    97    58    93 1   
    98    58    94 1   
    99    58    95 1   
   100    59    60 1   
   101    59    96 1   
   102    60    61 1   
   103    60    97 1   
   104    60    98 1   
   105    61    62 1   
   106    61    99 1   
   107    62   100 1   
   108    63   104 1   
   109   101   104 1   
   110   102   104 1   
   111   103   104 1   
@<TRIPOS>SUBSTRUCTURE
     1 A1I         1 TEMP              0 ****  ****    0 ROOT
