@<TRIPOS>MOLECULE
A1I
  104   111     1     0     0
SMALL
No Charge or Current Charge


@<TRIPOS>ATOM
      1 C1B         -6.8990    72.7460    89.1360 c5         1 A1I       0.266300
      2 C2B         -7.1990    71.7860    87.9250 c5         1 A1I       0.132300
      3 O2B         -7.5050    72.4590    86.6840 oh         1 A1I      -0.681000
      4 C3B         -8.3810    70.9290    88.4950 c5         1 A1I       0.145300
      5 O3B         -9.6540    71.6210    88.4760 oh         1 A1I      -0.722000
      6 C4B         -7.8540    70.7440    89.9570 c5         1 A1I       0.106300
      7 O4B         -7.4140    72.0780    90.3190 os         1 A1I      -0.462000
      8 C5B         -6.6890    69.7280    90.1760 c3         1 A1I       0.217600
      9 O5B         -7.1730    68.3970    89.9510 os         1 A1I      -0.585400
     10 CAA         -4.8650    56.4330    84.5880 ca         1 A1I      -0.065000
     11 PA          -6.6300    67.5310    88.7080 p5         1 A1I       1.473800
     12 CAB         -5.8620    56.0850    83.6500 ca         1 A1I      -0.105300
     13 O2A         -7.4930    66.3480    88.4210 o          1 A1I      -0.836500
     14 CAC         -4.5430    55.5770    85.6550 ca         1 A1I      -0.148000
     15 O1A         -6.5150    68.3850    87.4940 o          1 A1I      -0.836500
     16 CAD         -6.5320    54.8460    83.8120 ca         1 A1I      -0.065000
     17 CAE         -5.2150    54.3570    85.7980 ca         1 A1I       0.181000
     18 FAE         -4.9080    53.5350    86.8240 f          1 A1I      -0.183000
     19 CAF         -6.2080    53.9910    84.8810 ca         1 A1I      -0.148000
     20 N9A         -5.4930    73.0920    89.3430 na         1 A1I      -0.280300
     21 C4A         -4.6050    73.6380    88.4500 ca         1 A1I       0.122500
     22 N3A         -4.7560    73.9860    87.1550 nb         1 A1I      -0.203000
     23 C2A         -3.6650    74.5120    86.5490 ca         1 A1I       0.159900
     24 N1A         -2.4500    74.7210    87.1100 nb         1 A1I      -0.321000
     25 C6A         -2.3300    74.3630    88.3970 ca         1 A1I       0.440900
     26 N6A         -1.1120    74.5800    88.9610 nv         1 A1I      -1.078900
     27 C5A         -3.4150    73.8100    89.1120 ca         1 A1I      -0.094600
     28 N7A         -3.4800    73.4020    90.4390 nc         1 A1I      -0.578100
     29 C8A         -4.7560    72.9800    90.5390 cd         1 A1I       0.439700
     30 O3P         -5.1930    67.1440    89.2250 os         1 A1I      -0.724800
     31 P           -5.0620    66.0520    90.3570 p5         1 A1I       1.459800
     32 O1P         -3.6210    65.8250    90.6740 o          1 A1I      -0.840500
     33 O2P         -5.8140    66.3930    91.5990 o          1 A1I      -0.840500
     34 O5          -5.6760    64.7570    89.6270 os         1 A1I      -0.594400
     35 C5          -4.9590    64.1140    88.5710 c3         1 A1I       0.206600
     36 C4          -5.9870    63.3320    87.6980 c3         1 A1I       0.167300
     37 O4          -6.9720    64.2360    87.1230 oh         1 A1I      -0.841000
     38 C3          -5.3000    62.4920    86.5600 c3         1 A1I       0.122300
     39 O3          -4.3400    61.5740    87.1220 oh         1 A1I      -0.674000
     40 C2          -6.3260    61.7000    85.6820 c3         1 A1I       0.171300
     41 O2          -7.2970    62.6280    85.1570 oh         1 A1I      -0.763000
     42 C1          -5.6290    60.8740    84.5430 c3         1 A1I       0.218800
     43 N10         -6.5090    60.1420    83.5800 nh         1 A1I      -0.690400
     44 C10         -7.1410    58.9640    83.9910 c2         1 A1I       0.727200
     45 N1          -7.4420    58.7480    85.2260 ne         1 A1I      -0.750100
     46 C12         -8.1350    57.6240    85.6240 c          1 A1I       0.740400
     47 O7          -8.2450    57.2660    86.7790 o          1 A1I      -0.511000
     48 N3          -8.7790    56.9740    84.6230 ns         1 A1I      -0.495500
     49 C11         -8.6850    57.1060    83.2710 c          1 A1I       0.590000
     50 O6          -9.5090    56.5850    82.5300 o          1 A1I      -0.550000
     51 C4X         -7.4350    57.9460    82.8620 c5         1 A1I       0.057900
     52 N5          -7.6590    58.5420    81.4830 nh         1 A1I      -0.819400
     53 C9A         -6.8680    60.7280    82.3130 ca         1 A1I       0.256000
     54 C5X         -7.4570    59.9310    81.2850 ca         1 A1I       0.260000
     55 C9          -6.6620    62.1020    82.0400 ca         1 A1I      -0.075000
     56 C6          -7.8190    60.5140    80.0570 ca         1 A1I      -0.129000
     57 C7          -7.6070    61.8790    79.8050 ca         1 A1I      -0.072300
     58 C7M         -8.0170    62.4650    78.4570 c3         1 A1I      -0.039800
     59 CBZ         -6.1680    57.0960    82.5260 c5         1 A1I      -0.027400
     60 CCA         -6.5780    56.4240    81.1790 c5         1 A1I      -0.126400
     61 CCB         -7.3100    57.5810    80.4280 c5         1 A1I       0.453500
     62 OCC         -8.5270    57.1540    79.8980 oh         1 A1I      -0.654000
     63 C8          -7.0210    62.6800    80.8070 ca         1 A1I      -0.073300
     64 H1B         -7.4350    73.6940    89.0030 h2         1 A1I       0.102700
     65 H2B         -6.3290    71.1350    87.7630 h1         1 A1I       0.071700
     66 HO2A        -6.7090    72.9840    86.4380 ho         1 A1I       0.496000
     67 H3B         -8.4560    69.9660    87.9690 h1         1 A1I       0.119700
     68 HO3A       -10.3330    70.9980    88.8240 ho         1 A1I       0.505000
     69 H4B         -8.6670    70.4510    90.6350 h1         1 A1I       0.082700
     70 H51A        -6.3430    69.8200    91.2130 h1         1 A1I       0.039700
     71 H52A        -5.8360    69.9690    89.5290 h1         1 A1I       0.039700
     72 H1          -4.3350    57.3790    84.4940 ha         1 A1I       0.120500
     73 H11         -3.7740    55.8590    86.3700 ha         1 A1I       0.131500
     74 H12         -7.3200    54.5320    83.1350 ha         1 A1I       0.120500
     75 H13         -6.7300    53.0450    85.0010 ha         1 A1I       0.131500
     76 H2A         -3.7760    74.7960    85.5040 h5         1 A1I       0.032100
     77 H61A        -0.4850    75.2360    88.5030 hn         1 A1I       0.499500
     78 H62A        -1.0580    74.5260    89.9760 hn         1 A1I       0.499500
     79 H8A         -5.2110    72.5850    91.4410 h5         1 A1I       0.094800
     80 H5'1        -4.2200    63.4200    88.9920 h1         1 A1I       0.014200
     81 H5'2        -4.4280    64.8440    87.9450 h1         1 A1I       0.014200
     82 H4          -6.4990    62.6220    88.3630 h1         1 A1I       0.043700
     83 HO4         -7.1250    65.0120    87.7810 ho         1 A1I       0.626000
     84 H3          -4.7740    63.1950    85.8990 h1         1 A1I       0.033700
     85 HO3         -3.4920    62.0580    87.2370 ho         1 A1I       0.439000
     86 H2          -6.8340    60.9930    86.3510 h1         1 A1I       0.065700
     87 HO2         -7.3080    63.3560    85.8630 ho         1 A1I       0.578000
     88 H1'1        -4.9650    60.1400    85.0180 h1         1 A1I       0.062200
     89 H1'2        -4.9500    61.5430    83.9990 h1         1 A1I       0.062200
     90 HN3         -9.4490    56.2910    84.9370 hn         1 A1I       0.330500
     91 H9          -6.2300    62.7500    82.7930 ha         1 A1I       0.140000
     92 H6          -8.2770    59.8960    79.2900 ha         1 A1I       0.125000
     93 HM71        -8.7650    63.2580    78.5820 hc         1 A1I       0.037700
     94 HM72        -7.1540    62.8930    77.9340 hc         1 A1I       0.037700
     95 HM73        -8.4540    61.7060    77.7980 hc         1 A1I       0.037700
     96 H35         -5.3080    57.7560    82.3520 hc         1 A1I       0.069700
     97 H36         -7.2430    55.5660    81.2920 hc         1 A1I       0.062200
     98 H37         -5.7070    56.0690    80.6180 hc         1 A1I       0.062200
     99 H38         -6.6670    58.0240    79.6530 h2         1 A1I       0.075700
    100 H39         -9.0750    57.1120    80.7130 ho         1 A1I       0.475000
    101 HM81        -7.7140    64.6990    80.3790 hc         1 A1I       0.044367
    102 HM82        -6.3140    64.6480    81.4520 hc         1 A1I       0.044367
    103 HM83        -6.1050    64.3340    79.7270 hc         1 A1I       0.044367
    104 C8M         -6.7750    64.1700    80.5800 c3         1 A1I      -0.043800
@<TRIPOS>BOND
     1     1     2 1   
     2     1     7 1   
     3     1    20 1   
     4     1    64 1   
     5     2     3 1   
     6     2     4 1   
     7     2    65 1   
     8     3    66 1   
     9     4     5 1   
    10     4     6 1   
    11     4    67 1   
    12     5    68 1   
    13     6     7 1   
    14     6     8 1   
    15     6    69 1   
    16     8     9 1   
    17     8    70 1   
    18     8    71 1   
    19     9    11 1   
    20    10    12 ar  
    21    10    14 ar  
    22    10    72 1   
    23    11    13 1   
    24    11    15 1   
    25    11    30 1   
    26    12    16 ar  
    27    12    59 1   
    28    14    17 ar  
    29    14    73 1   
    30    16    19 ar  
    31    16    74 1   
    32    17    18 1   
    33    17    19 ar  
    34    19    75 1   
    35    20    21 1   
    36    20    29 1   
    37    21    22 ar  
    38    21    27 ar  
    39    22    23 ar  
    40    23    24 ar  
    41    23    76 1   
    42    24    25 ar  
    43    25    26 1   
    44    25    27 ar  
    45    26    77 1   
    46    26    78 1   
    47    27    28 1   
    48    28    29 2   
    49    29    79 1   
    50    30    31 1   
    51    31    32 1   
    52    31    33 1   
    53    31    34 1   
    54    34    35 1   
    55    35    36 1   
    56    35    80 1   
    57    35    81 1   
    58    36    37 1   
    59    36    38 1   
    60    36    82 1   
    61    37    83 1   
    62    38    39 1   
    63    38    40 1   
    64    38    84 1   
    65    39    85 1   
    66    40    41 1   
    67    40    42 1   
    68    40    86 1   
    69    41    87 1   
    70    42    43 1   
    71    42    88 1   
    72    42    89 1   
    73    43    44 1   
    74    43    53 1   
    75    44    45 2   
    76    44    51 1   
    77    45    46 1   
    78    46    47 2   
    79    46    48 1   
    80    48    49 1   
    81    48    90 1   
    82    49    50 2   
    83    49    51 1   
    84    51    52 1   
    85    51    59 1   
    86    52    54 1   
    87    52    61 1   
    88    53    54 ar  
    89    53    55 ar  
    90    54    56 ar  
    91    55    63 ar  
    92    55    91 1   
    93    56    57 ar  
    94    56    92 1   
    95    57    58 1   
    96    57    63 ar  
    97    58    93 1   
    98    58    94 1   
    99    58    95 1   
   100    59    60 1   
   101    59    96 1   
   102    60    61 1   
   103    60    97 1   
   104    60    98 1   
   105    61    62 1   
   106    61    99 1   
   107    62   100 1   
   108    63   104 1   
   109   101   104 1   
   110   102   104 1   
   111   103   104 1   
@<TRIPOS>SUBSTRUCTURE
     1 A1I         1 TEMP              0 ****  ****    0 ROOT
