@<TRIPOS>MOLECULE
A1K
   50    53     1     0     0
SMALL
No Charge or Current Charge


@<TRIPOS>ATOM
      1 C1          -5.5480     2.6970     1.4610 c3         1 A1K       0.223100
      2 N1          -5.5210     1.3720     0.8150 nu         1 A1K      -0.920100
      3 O1           0.8500     3.2640    -0.0640 os         1 A1K      -0.362100
      4 C2          -4.4120     0.6750     0.3640 ca         1 A1K       0.477900
      5 N2          -3.7380    -2.4440    -1.2280 na         1 A1K      -0.313400
      6 O2           5.2890     0.8670    -1.4030 o          1 A1K      -0.600100
      7 C3          -4.5210    -0.5830    -0.2340 ca         1 A1K      -0.293800
      8 N3          -2.1790    -0.6630    -0.5250 nb         1 A1K      -0.295000
      9 O3           7.2630    -1.9940     1.6070 os         1 A1K      -0.445000
     10 C4          -5.6440    -1.4240    -0.5250 cc         1 A1K       0.086800
     11 C5          -5.1490    -2.5610    -1.1350 cd         1 A1K      -0.178100
     12 N5           5.2190    -1.1030    -0.2240 n          1 A1K      -0.411800
     13 C6          -3.3900    -1.2250    -0.6680 ca         1 A1K       0.193500
     14 N6          -3.2090     1.2510     0.5150 nb         1 A1K      -0.354000
     15 C7          -2.1550     0.5460     0.0720 ca         1 A1K       0.447900
     16 C8           0.4070     0.8910    -0.0100 ca         1 A1K       0.324000
     17 C9           0.8810    -0.4330    -0.0770 ca         1 A1K      -0.134000
     18 C10          2.2410    -0.6990    -0.3010 ca         1 A1K      -0.085000
     19 C11          3.1690     0.3560    -0.4400 ca         1 A1K      -0.151600
     20 C12          2.6970     1.6860    -0.3800 ca         1 A1K      -0.122000
     21 C13          1.3280     1.9610    -0.1530 ca         1 A1K       0.070100
     22 C14          1.7050     4.4150    -0.2000 c3         1 A1K       0.153900
     23 C15          4.6400     0.0950    -0.7080 c          1 A1K       0.624700
     24 C16          6.5600    -1.5610    -0.7000 c6         1 A1K       0.060000
     25 C17          7.6590    -1.3550     0.3740 c6         1 A1K       0.130100
     26 C18          6.0280    -1.4690     2.1430 c6         1 A1K       0.130100
     27 C19          4.8720    -1.6570     1.1230 c6         1 A1K       0.060000
     28 Cl1         -7.3110    -1.0810    -0.1790 cl         1 A1K      -0.170000
     29 H1          -5.1260     3.4600     0.7920 h1         1 A1K       0.043367
     30 H2          -6.5790     2.9840     1.7060 h1         1 A1K       0.043367
     31 H3          -4.9620     2.6850     2.3900 h1         1 A1K       0.043367
     32 H4          -6.4100     0.8910     0.6760 hn         1 A1K       0.510000
     33 H5          -3.0940    -3.1180    -1.6280 hn         1 A1K       0.364000
     34 H6          -1.0730     2.1840     0.4490 hn         1 A1K       0.529000
     35 H7          -5.6910    -3.4290    -1.5020 h4         1 A1K       0.230000
     36 H8           0.2040    -1.2690     0.0550 ha         1 A1K       0.155000
     37 H9           2.5670    -1.7340    -0.3780 ha         1 A1K       0.119000
     38 H10          3.4120     2.4950    -0.5000 ha         1 A1K       0.132000
     39 H11          2.1880     4.4290    -1.1860 h1         1 A1K       0.043033
     40 H12          1.1200     5.3370    -0.0970 h1         1 A1K       0.043033
     41 H13          2.4830     4.4180     0.5740 h1         1 A1K       0.043033
     42 H14          6.5010    -2.6300    -0.9470 h1         1 A1K       0.065700
     43 H15          6.8490    -1.0390    -1.6230 h1         1 A1K       0.065700
     44 H16          7.8170    -0.2810     0.5520 h1         1 A1K       0.053450
     45 H17          8.6070    -1.7900     0.0300 h1         1 A1K       0.053450
     46 H18          5.7910    -1.9920     3.0800 h1         1 A1K       0.053450
     47 H19          6.1580    -0.4010     2.3710 h1         1 A1K       0.053450
     48 H20          3.9790    -1.1680     1.5350 h1         1 A1K       0.065700
     49 H21          4.6450    -2.7280     1.0240 h1         1 A1K       0.065700
     50 N4          -0.9450     1.1980     0.2240 nu         1 A1K      -0.921900
@<TRIPOS>BOND
     1     1     2 1   
     2     1    29 1   
     3     1    30 1   
     4     1    31 1   
     5     2     4 1   
     6     2    32 1   
     7     3    21 1   
     8     3    22 1   
     9     4     7 ar  
    10     4    14 ar  
    11     5    11 1   
    12     5    13 1   
    13     5    33 1   
    14     6    23 2   
    15     7    10 1   
    16     7    13 ar  
    17     8    13 ar  
    18     8    15 ar  
    19     9    25 1   
    20     9    26 1   
    21    10    11 2   
    22    10    28 1   
    23    11    35 1   
    24    12    23 1   
    25    12    24 1   
    26    12    27 1   
    27    14    15 ar  
    28    15    50 1   
    29    16    17 ar  
    30    16    21 ar  
    31    16    50 1   
    32    17    18 ar  
    33    17    36 1   
    34    18    19 ar  
    35    18    37 1   
    36    19    20 ar  
    37    19    23 1   
    38    20    21 ar  
    39    20    38 1   
    40    22    39 1   
    41    22    40 1   
    42    22    41 1   
    43    24    25 1   
    44    24    42 1   
    45    24    43 1   
    46    25    44 1   
    47    25    45 1   
    48    26    27 1   
    49    26    46 1   
    50    26    47 1   
    51    27    48 1   
    52    27    49 1   
    53    34    50 1   
@<TRIPOS>SUBSTRUCTURE
     1 A1K         1 TEMP              0 ****  ****    0 ROOT
