@<TRIPOS>MOLECULE
A1K
   50    53     1     0     0
SMALL
bcc


@<TRIPOS>ATOM
      1 C1          -5.3360     2.9090     0.8630 c3         1 A1K       0.223100
      2 N1          -5.4290     1.5020     0.5560 nu         1 A1K      -0.864900
      3 O1           0.8640     3.1460     0.2720 os         1 A1K      -0.338900
      4 C2          -4.3690     0.7440     0.2640 ca         1 A1K       0.806200
      5 N2          -3.5480    -2.5750    -0.6020 na         1 A1K      -0.263100
      6 O2           5.1570     0.9260    -1.5630 o          1 A1K      -0.600100
      7 C3          -4.4830    -0.6330    -0.0530 ca         1 A1K      -0.424400
      8 N3          -2.0620    -0.7250    -0.3070 nb         1 A1K      -0.821000
      9 O3           7.0150    -2.0160     1.5420 os         1 A1K      -0.398600
     10 C4          -5.5010    -1.6190    -0.1890 cc         1 A1K       0.011200
     11 C5          -4.9020    -2.7950    -0.5240 cd         1 A1K      -0.128100
     12 N5           5.1630    -0.9560    -0.3090 n          1 A1K      -0.478800
     13 C6          -3.2760    -1.2820    -0.3220 ca         1 A1K       0.521800
     14 N6          -3.1670     1.3070     0.2770 nb         1 A1K      -0.880000
     15 C7          -2.0880     0.5570    -0.0040 ca         1 A1K       0.973900
     16 C8           0.3890     0.9020    -0.1590 ca         1 A1K       0.185600
     17 C9           0.8290    -0.3810    -0.4720 ca         1 A1K      -0.152000
     18 C10          2.1820    -0.6460    -0.6440 ca         1 A1K      -0.103000
     19 C11          3.1240     0.3620    -0.5240 ca         1 A1K      -0.151600
     20 C12          2.6960     1.6610    -0.2410 ca         1 A1K      -0.140000
     21 C13          1.3570     1.9300    -0.0380 ca         1 A1K       0.070100
     22 C14          1.7580     4.2360     0.3880 c3         1 A1K       0.130700
     23 C15          4.5680     0.1420    -0.8280 c          1 A1K       0.691700
     24 C16          6.5040    -1.3390    -0.7200 c6         1 A1K       0.060000
     25 C17          7.4650    -1.2450     0.4500 c6         1 A1K       0.106900
     26 C18          5.7380    -1.6000     1.9660 c6         1 A1K       0.106900
     27 C19          4.7040    -1.7000     0.8530 c6         1 A1K       0.060000
     28 CL1         -7.1890    -1.3850     0.0270 cl         1 A1K      -0.094400
     29 H1          -4.9650     3.4890     0.0170 h1         1 A1K       0.043367
     30 H2          -6.3290     3.2660     1.1170 h1         1 A1K       0.043367
     31 H3          -4.6760     3.0910     1.7120 h1         1 A1K       0.043367
     32 H4          -6.3440     1.0890     0.5090 hn         1 A1K       0.454800
     33 H5          -2.8620    -3.2760    -0.8340 hn         1 A1K       0.313700
     34 H6          -1.0720     2.2470     0.2760 hn         1 A1K       0.473800
     35 H7          -5.3280    -3.7650    -0.7130 h4         1 A1K       0.180000
     36 H8           0.1110    -1.1760    -0.5810 ha         1 A1K       0.173000
     37 H9           2.4840    -1.6550    -0.8920 ha         1 A1K       0.137000
     38 H10          3.4300     2.4520    -0.1720 ha         1 A1K       0.150000
     39 H11          2.2710     4.4390    -0.5550 h1         1 A1K       0.043033
     40 H12          1.1570     5.1010     0.6550 h1         1 A1K       0.043033
     41 H13          2.5030     4.0660     1.1690 h1         1 A1K       0.043033
     42 H14          6.4700    -2.3700    -1.0880 h1         1 A1K       0.065700
     43 H15          6.8400    -0.7040    -1.5360 h1         1 A1K       0.065700
     44 H16          7.5860    -0.1920     0.7430 h1         1 A1K       0.053450
     45 H17          8.4440    -1.6270     0.1590 h1         1 A1K       0.053450
     46 H18          5.4420    -2.2400     2.7980 h1         1 A1K       0.053450
     47 H19          5.7700    -0.5630     2.3310 h1         1 A1K       0.053450
     48 H20          3.7610    -1.3040     1.2210 h1         1 A1K       0.065700
     49 H21          4.5410    -2.7460     0.5780 h1         1 A1K       0.065700
     50 N4          -0.9240     1.2760     0.0480 nu         1 A1K      -0.728300
@<TRIPOS>BOND
     1     1     2 1   
     2     1    29 1   
     3     1    30 1   
     4     1    31 1   
     5     2     4 1   
     6     2    32 1   
     7     3    21 1   
     8     3    22 1   
     9     4     7 ar  
    10     4    14 ar  
    11     5    11 1   
    12     5    13 1   
    13     5    33 1   
    14     6    23 2   
    15     7    10 1   
    16     7    13 ar  
    17     8    13 ar  
    18     8    15 ar  
    19     9    25 1   
    20     9    26 1   
    21    10    11 2   
    22    10    28 1   
    23    11    35 1   
    24    12    23 1   
    25    12    24 1   
    26    12    27 1   
    27    14    15 ar  
    28    15    50 1   
    29    16    17 ar  
    30    16    21 ar  
    31    16    50 1   
    32    17    18 ar  
    33    17    36 1   
    34    18    19 ar  
    35    18    37 1   
    36    19    20 ar  
    37    19    23 1   
    38    20    21 ar  
    39    20    38 1   
    40    22    39 1   
    41    22    40 1   
    42    22    41 1   
    43    24    25 1   
    44    24    42 1   
    45    24    43 1   
    46    25    44 1   
    47    25    45 1   
    48    26    27 1   
    49    26    46 1   
    50    26    47 1   
    51    27    48 1   
    52    27    49 1   
    53    34    50 1   
@<TRIPOS>SUBSTRUCTURE
     1 A1K         1 TEMP              0 ****  ****    0 ROOT
