@<TRIPOS>MOLECULE
A1L
   67    68     1     0     0
SMALL
bcc


@<TRIPOS>ATOM
      1 C9           9.7910     0.4360     0.6940 c3         1 A1L       0.110300
      2 N6           8.4050     0.0400     0.7210 ns         1 A1L      -0.600900
      3 C8           7.4930     0.6220    -0.0890 c          1 A1L       0.804100
      4 O3           7.7760     1.5240    -0.8580 o          1 A1L      -0.580100
      5 N4           6.2170     0.1150     0.0810 ns         1 A1L      -0.536400
      6 C7           5.1140     0.3460    -0.7370 c2         1 A1L       0.684800
      7 N5           5.2510     0.6760    -1.9590 n2         1 A1L      -0.827100
      8 N3           3.9430     0.0900    -0.0720 nu         1 A1L      -0.908200
      9 C6           2.6680     0.2410    -0.7350 c3         1 A1L       0.211800
     10 C5           1.5350    -0.2510     0.1510 c3         1 A1L      -0.078400
     11 C4           0.2030    -0.1260    -0.5730 c3         1 A1L      -0.082400
     12 C2          -0.9970    -0.4780     0.3100 c3         1 A1L       0.060700
     13 N2          -1.0000    -1.8290     0.8310 ns         1 A1L      -0.579900
     14 C3          -0.7180    -2.9720     0.1780 c          1 A1L       0.694100
     15 O1          -0.2950    -3.0620    -0.9560 o          1 A1L      -0.530100
     16 C10         -0.9460    -4.2000     1.0500 c3         1 A1L       0.062800
     17 N7          -0.7330    -5.3870     0.2370 n2         1 A1L      -0.387200
     18 N8          -0.9270    -6.4520     0.7910 n1         1 A1L       0.221000
     19 N9          -1.0800    -7.4880     1.2010 n1         1 A1L      -0.073000
     20 C1          -2.2920    -0.2140    -0.4680 c          1 A1L       0.645100
     21 O2          -2.7010    -1.0570    -1.2500 o          1 A1L      -0.574100
     22 N1          -2.9130     0.9760    -0.2870 n          1 A1L      -0.478800
     23 C12         -2.5650     1.9280     0.7610 c3         1 A1L       0.144800
     24 C13         -1.2940     2.7010     0.5100 ca         1 A1L      -0.115800
     25 C20         -1.0650     3.3300    -0.7130 ca         1 A1L      -0.117250
     26 C21          0.1180     4.0160    -0.9410 ca         1 A1L      -0.129750
     27 C22          1.0910     4.0830     0.0500 ca         1 A1L      -0.121000
     28 C23          0.8660     3.4700     1.2730 ca         1 A1L      -0.129750
     29 C24         -0.3220     2.7850     1.4990 ca         1 A1L      -0.117250
     30 C11         -4.0890     1.2980    -1.0880 c3         1 A1L       0.144800
     31 C14         -5.3760     1.1390    -0.3200 ca         1 A1L      -0.115800
     32 C15         -5.8200    -0.1230     0.0730 ca         1 A1L      -0.117250
     33 C16         -7.0000    -0.2640     0.7870 ca         1 A1L      -0.129750
     34 C17         -7.7550     0.8560     1.1200 ca         1 A1L      -0.121000
     35 C18         -7.3230     2.1150     0.7320 ca         1 A1L      -0.129750
     36 C19         -6.1390     2.2520     0.0160 ca         1 A1L      -0.117250
     37 H1           9.9060     1.5020     0.8870 h1         1 A1L       0.039700
     38 H2          10.3130    -0.1060     1.4780 h1         1 A1L       0.039700
     39 H3          10.2740     0.2060    -0.2580 h1         1 A1L       0.039700
     40 H4           8.1650    -0.7920     1.2320 hn         1 A1L       0.307500
     41 H5           6.0640    -0.5040     0.8620 hn         1 A1L       0.311500
     42 H6           4.3550     0.8760    -2.3870 hn         1 A1L       0.388400
     43 H7           3.9430     0.2770     0.9190 hn         1 A1L       0.409800
     44 H8           2.4810     1.2840    -1.0240 h1         1 A1L       0.044700
     45 H9           2.6820    -0.3480    -1.6570 h1         1 A1L       0.044700
     46 H10          1.7280    -1.2860     0.4410 hc         1 A1L       0.046200
     47 H11          1.5070     0.3450     1.0690 hc         1 A1L       0.046200
     48 H12          0.0720     0.9090    -0.8940 hc         1 A1L       0.074200
     49 H13          0.1990    -0.7370    -1.4740 hc         1 A1L       0.074200
     50 H14         -0.9410     0.1560     1.1940 h1         1 A1L       0.056700
     51 H15         -1.3680    -1.9200     1.7640 hn         1 A1L       0.304500
     52 H16         -0.2510    -4.1680     1.8970 h1         1 A1L       0.049700
     53 H17         -1.9580    -4.1750     1.4650 h1         1 A1L       0.049700
     54 H19         -3.4000     2.6270     0.8430 h1         1 A1L       0.062450
     55 H20         -2.5190     1.4320     1.7330 h1         1 A1L       0.062450
     56 H21         -1.8080     3.2790    -1.5000 ha         1 A1L       0.133250
     57 H22          0.2830     4.4970    -1.8970 ha         1 A1L       0.133750
     58 H23          2.0170     4.6130    -0.1330 ha         1 A1L       0.135000
     59 H24          1.6180     3.5140     2.0510 ha         1 A1L       0.133750
     60 H25         -0.4850     2.2990     2.4550 ha         1 A1L       0.133250
     61 H26         -3.9950     2.3280    -1.4380 h1         1 A1L       0.062450
     62 H27         -4.0900     0.6590    -1.9690 h1         1 A1L       0.062450
     63 H28         -5.2440    -1.0020    -0.1880 ha         1 A1L       0.133250
     64 H29         -7.3370    -1.2500     1.0800 ha         1 A1L       0.133750
     65 H30         -8.6760     0.7440     1.6780 ha         1 A1L       0.135000
     66 H31         -7.9040     2.9930     0.9850 ha         1 A1L       0.133750
     67 H32         -5.8060     3.2390    -0.2850 ha         1 A1L       0.133250
@<TRIPOS>BOND
     1     1     2 1   
     2     1    37 1   
     3     1    38 1   
     4     1    39 1   
     5     2     3 1   
     6     2    40 1   
     7     3     4 2   
     8     3     5 1   
     9     5     6 1   
    10     5    41 1   
    11     6     7 2   
    12     6     8 1   
    13     7    42 1   
    14     8     9 1   
    15     8    43 1   
    16     9    10 1   
    17     9    44 1   
    18     9    45 1   
    19    10    11 1   
    20    10    46 1   
    21    10    47 1   
    22    11    12 1   
    23    11    48 1   
    24    11    49 1   
    25    12    13 1   
    26    12    20 1   
    27    12    50 1   
    28    13    14 1   
    29    13    51 1   
    30    14    15 2   
    31    14    16 1   
    32    16    17 1   
    33    16    52 1   
    34    16    53 1   
    35    17    18 1   
    36    18    19 3   
    37    20    21 2   
    38    20    22 1   
    39    22    23 1   
    40    22    30 1   
    41    23    24 1   
    42    23    54 1   
    43    23    55 1   
    44    24    25 ar  
    45    24    29 ar  
    46    25    26 ar  
    47    25    56 1   
    48    26    27 ar  
    49    26    57 1   
    50    27    28 ar  
    51    27    58 1   
    52    28    29 ar  
    53    28    59 1   
    54    29    60 1   
    55    30    31 1   
    56    30    61 1   
    57    30    62 1   
    58    31    32 ar  
    59    31    36 ar  
    60    32    33 ar  
    61    32    63 1   
    62    33    34 ar  
    63    33    64 1   
    64    34    35 ar  
    65    34    65 1   
    66    35    36 ar  
    67    35    66 1   
    68    36    67 1   
@<TRIPOS>SUBSTRUCTURE
     1 A1L         1 TEMP              0 ****  ****    0 ROOT
