@<TRIPOS>MOLECULE
A1L
   67    68     1     0     0
SMALL
No Charge or Current Charge


@<TRIPOS>ATOM
      1 C9           9.3880     0.9780     1.4160 c3         1 A1L       0.110300
      2 N6           8.1050     0.3900     1.0270 ns         1 A1L      -0.533900
      3 C8           7.2290     0.9740     0.1480 c          1 A1L       0.670100
      4 O3           7.4440     2.0500    -0.3850 o          1 A1L      -0.580100
      5 N4           6.1060     0.2320    -0.0380 ns         1 A1L      -0.469400
      6 C7           5.0740     0.5120    -0.8750 c2         1 A1L       0.684800
      7 N5           5.1630     0.8180    -2.0940 n2         1 A1L      -0.827100
      8 N3           3.9200     0.0260    -0.3590 nu         1 A1L      -0.963400
      9 C6           2.5940     0.1300    -0.9890 c3         1 A1L       0.211800
     10 C5           1.5120    -0.4510    -0.0600 c3         1 A1L      -0.078400
     11 C4           0.0920    -0.3630    -0.6680 c3         1 A1L      -0.082400
     12 C2          -1.0370    -0.7990     0.3120 c3         1 A1L       0.060700
     13 N2          -0.9120    -2.2110     0.7680 ns         1 A1L      -0.512900
     14 C3          -0.7900    -3.3390    -0.0290 c          1 A1L       0.627100
     15 O1          -0.7700    -3.2900    -1.2530 o          1 A1L      -0.530100
     16 C10         -0.6820    -4.6620     0.7720 c3         1 A1L       0.062800
     17 N7          -0.4810    -5.8620    -0.0670 n2         1 A1L      -0.387200
     18 N8          -0.3930    -6.9440     0.5340 n1         1 A1L       0.221000
     19 N9          -0.2900    -7.9950     0.9580 n1         1 A1L      -0.073000
     20 C1          -2.4720    -0.4800    -0.2440 c          1 A1L       0.578100
     21 O2          -3.1830    -1.3730    -0.6950 o          1 A1L      -0.574100
     22 N1          -2.9130     0.8700    -0.2900 n          1 A1L      -0.411800
     23 C12         -2.4590     1.8650     0.7190 c3         1 A1L       0.144800
     24 C13         -1.1610     2.5850     0.3750 ca         1 A1L      -0.115800
     25 C20         -1.0300     3.2760    -0.8470 ca         1 A1L      -0.099250
     26 C21          0.1770     3.9170    -1.1740 ca         1 A1L      -0.111750
     27 C22          1.2600     3.8780    -0.2800 ca         1 A1L      -0.103000
     28 C23          1.1320     3.2030     0.9450 ca         1 A1L      -0.111750
     29 C24         -0.0760     2.5620     1.2740 ca         1 A1L      -0.099250
     30 C11         -4.1440     1.2250    -1.0410 c3         1 A1L       0.144800
     31 C14         -5.3890     1.3680    -0.1690 ca         1 A1L      -0.115800
     32 C15         -6.0310     0.2280     0.3540 ca         1 A1L      -0.099250
     33 C16         -7.1750     0.3630     1.1600 ca         1 A1L      -0.111750
     34 C17         -7.6880     1.6400     1.4460 ca         1 A1L      -0.103000
     35 C18         -7.0550     2.7810     0.9250 ca         1 A1L      -0.111750
     36 C19         -5.9110     2.6460     0.1200 ca         1 A1L      -0.099250
     37 H1           9.2190     1.9540     1.8910 h1         1 A1L       0.039700
     38 H2           9.8960     0.3140     2.1260 h1         1 A1L       0.039700
     39 H3          10.0190     1.1100     0.5280 h1         1 A1L       0.039700
     40 H4           7.8450    -0.5040     1.4240 hn         1 A1L       0.307500
     41 H5           6.0310    -0.6200     0.4900 hn         1 A1L       0.311500
     42 H6           4.2110     0.7750    -2.4650 hn         1 A1L       0.388400
     43 H7           3.9280    -0.0910     0.6500 hn         1 A1L       0.465000
     44 H8           2.3590     1.1840    -1.1970 h1         1 A1L       0.044700
     45 H9           2.5830    -0.4170    -1.9420 h1         1 A1L       0.044700
     46 H10          1.7500    -1.4990     0.1590 hc         1 A1L       0.046200
     47 H11          1.5290     0.0910     0.8930 hc         1 A1L       0.046200
     48 H12         -0.0850     0.6670    -0.9900 hc         1 A1L       0.074200
     49 H13          0.0490    -0.9540    -1.5890 hc         1 A1L       0.074200
     50 H14         -0.9190    -0.1940     1.2170 h1         1 A1L       0.056700
     51 H15         -0.9260    -2.3800     1.7680 hn         1 A1L       0.304500
     52 H16          0.1500    -4.5450     1.4780 h1         1 A1L       0.049700
     53 H17         -1.6010    -4.7560     1.3650 h1         1 A1L       0.049700
     54 H19         -3.2350     2.6290     0.8500 h1         1 A1L       0.062450
     55 H20         -2.3640     1.3650     1.6920 h1         1 A1L       0.062450
     56 H21         -1.8600     3.3080    -1.5490 ha         1 A1L       0.115250
     57 H22          0.2740     4.4420    -2.1220 ha         1 A1L       0.115750
     58 H23          2.1950     4.3720    -0.5340 ha         1 A1L       0.117000
     59 H24          1.9680     3.1740     1.6400 ha         1 A1L       0.115750
     60 H25         -0.1610     2.0400     2.2240 ha         1 A1L       0.115250
     61 H26         -3.9640     2.1730    -1.5650 h1         1 A1L       0.062450
     62 H27         -4.3380     0.4790    -1.8230 h1         1 A1L       0.062450
     63 H28         -5.6450    -0.7650     0.1370 ha         1 A1L       0.115250
     64 H29         -7.6650    -0.5220     1.5610 ha         1 A1L       0.115750
     65 H30         -8.5730     1.7440     2.0700 ha         1 A1L       0.117000
     66 H31         -7.4510     3.7700     1.1450 ha         1 A1L       0.115750
     67 H32         -5.4290     3.5370    -0.2780 ha         1 A1L       0.115250
@<TRIPOS>BOND
     1     1     2 1   
     2     1    37 1   
     3     1    38 1   
     4     1    39 1   
     5     2     3 1   
     6     2    40 1   
     7     3     4 2   
     8     3     5 1   
     9     5     6 1   
    10     5    41 1   
    11     6     7 2   
    12     6     8 1   
    13     7    42 1   
    14     8     9 1   
    15     8    43 1   
    16     9    10 1   
    17     9    44 1   
    18     9    45 1   
    19    10    11 1   
    20    10    46 1   
    21    10    47 1   
    22    11    12 1   
    23    11    48 1   
    24    11    49 1   
    25    12    13 1   
    26    12    20 1   
    27    12    50 1   
    28    13    14 1   
    29    13    51 1   
    30    14    15 2   
    31    14    16 1   
    32    16    17 1   
    33    16    52 1   
    34    16    53 1   
    35    17    18 1   
    36    18    19 3   
    37    20    21 2   
    38    20    22 1   
    39    22    23 1   
    40    22    30 1   
    41    23    24 1   
    42    23    54 1   
    43    23    55 1   
    44    24    25 ar  
    45    24    29 ar  
    46    25    26 ar  
    47    25    56 1   
    48    26    27 ar  
    49    26    57 1   
    50    27    28 ar  
    51    27    58 1   
    52    28    29 ar  
    53    28    59 1   
    54    29    60 1   
    55    30    31 1   
    56    30    61 1   
    57    30    62 1   
    58    31    32 ar  
    59    31    36 ar  
    60    32    33 ar  
    61    32    63 1   
    62    33    34 ar  
    63    33    64 1   
    64    34    35 ar  
    65    34    65 1   
    66    35    36 ar  
    67    35    66 1   
    68    36    67 1   
@<TRIPOS>SUBSTRUCTURE
     1 A1L         1 TEMP              0 ****  ****    0 ROOT
