@<TRIPOS>MOLECULE
A1L
   57    60     1     0     0
SMALL
No Charge or Current Charge


@<TRIPOS>ATOM
      1 Br          41.2250   -35.0730   -23.3010 br         1 A1L      -0.057100
      2 C5          41.7010   -33.9900   -21.7860 ca         1 A1L      -0.025900
      3 C4          42.4940   -32.8540   -22.0310 ca         1 A1L      -0.081000
      4 C3          42.8730   -32.0100   -20.9760 ca         1 A1L      -0.101000
      5 C2          42.4570   -32.2990   -19.6680 ca         1 A1L      -0.093000
      6 C6          41.2750   -34.2940   -20.4660 ca         1 A1L      -0.100300
      7 C1          41.6650   -33.4310   -19.4160 ca         1 A1L      -0.113000
      8 C7          40.4170   -35.5240   -20.1470 c3         1 A1L       0.220800
      9 N1          41.2130   -36.4700   -19.3530 n8         1 A1L      -1.029200
     10 C8          39.1260   -35.1680   -19.3870 c3         1 A1L      -0.167400
     11 C9          38.0390   -36.2010   -19.6620 c          1 A1L       0.627100
     12 O1          37.3430   -36.1500   -20.6630 o          1 A1L      -0.529100
     13 N2          37.8870   -37.1410   -18.7010 ns         1 A1L      -0.665300
     14 S           36.8590   -38.4370   -18.7040 s6         1 A1L       1.444500
     15 O3          37.1920   -39.2620   -17.5390 o          1 A1L      -0.545500
     16 O4          35.4930   -37.9510   -18.9270 o          1 A1L      -0.545500
     17 O2          37.3870   -39.1750   -20.0710 os         1 A1L      -0.546700
     18 C10         38.5550   -40.0050   -19.9520 c3         1 A1L       0.204600
     19 C11         39.0260   -40.3790   -21.3780 c5         1 A1L       0.129300
     20 C12         40.1710   -41.4350   -21.4330 c5         1 A1L       0.091300
     21 O6          39.7110   -42.7840   -21.2340 oh         1 A1L      -0.705000
     22 C13         40.6640   -41.2140   -22.8920 c5         1 A1L       0.140300
     23 O7          39.7700   -41.8750   -23.8020 oh         1 A1L      -0.700000
     24 C14         40.6060   -39.6460   -22.9800 c5         1 A1L       0.315300
     25 O5          39.5880   -39.2190   -22.0410 os         1 A1L      -0.418000
     26 N3          41.8450   -38.9490   -22.6430 na         1 A1L      -0.302300
     27 C16         42.7240   -38.3180   -23.4840 ca         1 A1L       0.126500
     28 N5          42.7350   -38.2140   -24.8280 nb         1 A1L      -0.217000
     29 C18         43.7500   -37.4890   -25.3570 ca         1 A1L       0.183900
     30 N6          44.7410   -36.8670   -24.6750 nb         1 A1L      -0.301000
     31 C19         44.7040   -36.9940   -23.3400 ca         1 A1L       0.451900
     32 N7          45.6970   -36.3690   -22.6530 nv         1 A1L      -1.065900
     33 C17         43.6830   -37.7290   -22.6990 ca         1 A1L      -0.096600
     34 N4          43.4740   -37.9530   -21.3430 nc         1 A1L      -0.575100
     35 C15         42.3540   -38.7000   -21.3570 cd         1 A1L       0.420700
     36 H1          42.8170   -32.6270   -23.0450 ha         1 A1L       0.132000
     37 H2          43.4860   -31.1330   -21.1730 ha         1 A1L       0.123000
     38 H3          42.7490   -31.6450   -18.8490 ha         1 A1L       0.121000
     39 H4          41.3560   -33.6370   -18.3940 ha         1 A1L       0.107000
     40 H5          40.1250   -36.0300   -21.0770 h1         1 A1L       0.080700
     41 H6          42.0590   -36.6950   -19.8940 hn         1 A1L       0.424500
     42 H7          41.5970   -35.9690   -18.5460 hn         1 A1L       0.424500
     43 H9          38.7670   -34.1990   -19.7530 hc         1 A1L       0.085200
     44 H10         39.3410   -35.1100   -18.3150 hc         1 A1L       0.085200
     45 H11         38.5310   -37.1900   -17.9340 hn         1 A1L       0.400500
     46 H12         38.3240   -40.9230   -19.3950 h1         1 A1L       0.050700
     47 H13         39.3730   -39.4820   -19.4380 h1         1 A1L       0.050700
     48 H14         38.1550   -40.7250   -21.9520 h1         1 A1L       0.101700
     49 H15         40.9600   -41.1850   -20.7090 h1         1 A1L       0.048700
     50 H16         40.4150   -43.2740   -20.7420 ho         1 A1L       0.520000
     51 H17         41.6920   -41.5800   -23.0290 h1         1 A1L       0.076700
     52 H18         39.3910   -42.6120   -23.2580 ho         1 A1L       0.531000
     53 H19         40.3420   -39.3340   -23.9990 h2         1 A1L       0.131700
     54 H20         43.7680   -37.3950   -26.4410 h5         1 A1L       0.048100
     55 H21         46.2060   -35.6270   -23.1230 hn         1 A1L       0.507000
     56 H22         45.5650   -36.2680   -21.6500 hn         1 A1L       0.507000
     57 H23         41.8480   -39.0770   -20.4760 h5         1 A1L       0.067800
@<TRIPOS>BOND
     1     1     2 1   
     2     2     3 ar  
     3     2     6 ar  
     4     3     4 ar  
     5     3    36 1   
     6     4     5 ar  
     7     4    37 1   
     8     5     7 ar  
     9     5    38 1   
    10     6     7 ar  
    11     6     8 1   
    12     7    39 1   
    13     8     9 1   
    14     8    10 1   
    15     8    40 1   
    16     9    41 1   
    17     9    42 1   
    18    10    11 1   
    19    10    43 1   
    20    10    44 1   
    21    11    12 2   
    22    11    13 1   
    23    13    14 1   
    24    13    45 1   
    25    14    15 2   
    26    14    16 2   
    27    14    17 1   
    28    17    18 1   
    29    18    19 1   
    30    18    46 1   
    31    18    47 1   
    32    19    20 1   
    33    19    25 1   
    34    19    48 1   
    35    20    21 1   
    36    20    22 1   
    37    20    49 1   
    38    21    50 1   
    39    22    23 1   
    40    22    24 1   
    41    22    51 1   
    42    23    52 1   
    43    24    25 1   
    44    24    26 1   
    45    24    53 1   
    46    26    27 1   
    47    26    35 1   
    48    27    28 ar  
    49    27    33 ar  
    50    28    29 ar  
    51    29    30 ar  
    52    29    54 1   
    53    30    31 ar  
    54    31    32 1   
    55    31    33 ar  
    56    32    55 1   
    57    32    56 1   
    58    33    34 1   
    59    34    35 2   
    60    35    57 1   
@<TRIPOS>SUBSTRUCTURE
     1 A1L         1 TEMP              0 ****  ****    0 ROOT
