@<TRIPOS>MOLECULE
A1L
   58    61     1     0     0
SMALL
abcg2


@<TRIPOS>ATOM
      1 O4          36.5170   -38.6360   -18.3480 o          1 A1L      -0.541500
      2 S           36.5950   -38.1790   -19.7140 s6         1 A1L       1.445500
      3 O3          35.4040   -37.9120   -20.4710 o          1 A1L      -0.541500
      4 N2          37.5940   -36.8710   -19.6830 ns         1 A1L      -0.664300
      5 C9          38.0260   -36.2030   -20.8070 c          1 A1L       0.623100
      6 O1          37.6770   -36.4920   -21.9260 o          1 A1L      -0.520100
      7 C8          38.9730   -35.0620   -20.4980 c3         1 A1L      -0.170400
      8 C7          39.9430   -35.3130   -19.3290 c3         1 A1L       0.222800
      9 N1          39.1880   -35.4600   -18.0960 n8         1 A1L      -1.028200
     10 C6          41.0240   -34.2500   -19.3360 ca         1 A1L      -0.133300
     11 C5          42.0370   -34.3510   -20.2830 ca         1 A1L      -0.062000
     12 C4          43.0320   -33.3810   -20.3510 ca         1 A1L      -0.013000
     13 C10         44.0470   -33.5170   -21.3460 cg         1 A1L       0.346000
     14 N3          44.8500   -33.6470   -22.1620 n1         1 A1L      -0.471000
     15 C3          43.0390   -32.2990   -19.4720 ca         1 A1L      -0.063000
     16 C2          42.0340   -32.2060   -18.5270 ca         1 A1L      -0.110000
     17 C1          41.0350   -33.1720   -18.4590 ca         1 A1L      -0.088000
     18 O2          37.3910   -39.2370   -20.5970 os         1 A1L      -0.545700
     19 C11         38.6660   -39.7130   -20.1310 c3         1 A1L       0.203600
     20 C12         39.2770   -40.5170   -21.2470 c5         1 A1L       0.129300
     21 C13         40.6810   -41.0340   -20.9090 c5         1 A1L       0.091300
     22 O6          40.7020   -42.2370   -20.2050 oh         1 A1L      -0.705000
     23 C14         41.2670   -41.2170   -22.3100 c5         1 A1L       0.139300
     24 O7          40.8070   -42.3960   -22.9100 oh         1 A1L      -0.699000
     25 C15         40.6300   -40.0500   -23.0730 c5         1 A1L       0.311300
     26 O5          39.4630   -39.6930   -22.3890 os         1 A1L      -0.419000
     27 N4          41.4920   -38.8860   -23.1660 na         1 A1L      -0.297300
     28 C17         42.3650   -38.6440   -24.1870 ca         1 A1L       0.133500
     29 N6          42.5860   -39.3930   -25.2650 nb         1 A1L      -0.222000
     30 C19         43.4970   -38.8500   -26.0540 ca         1 A1L       0.188900
     31 N7          44.1680   -37.7160   -25.8800 nb         1 A1L      -0.305000
     32 C20         43.9370   -36.9750   -24.7890 ca         1 A1L       0.454900
     33 N8          44.6140   -35.8380   -24.6290 nv         1 A1L      -1.057900
     34 C18         42.9780   -37.4420   -23.8690 ca         1 A1L      -0.098600
     35 N5          42.4930   -36.9550   -22.6820 nc         1 A1L      -0.571100
     36 C16         41.6180   -37.8380   -22.2980 cd         1 A1L       0.404700
     37 H1          38.0220   -36.5540   -18.7730 hn         1 A1L       0.398500
     38 H2          39.5290   -34.8560   -21.4110 hc         1 A1L       0.085700
     39 H3          38.3730   -34.1700   -20.2850 hc         1 A1L       0.085700
     40 H4          40.4380   -36.2730   -19.5040 h1         1 A1L       0.063700
     41 H5          39.7830   -35.7470   -17.3280 hn         1 A1L       0.425500
     42 H6          38.7220   -34.6020   -17.8260 hn         1 A1L       0.425500
     43 H8          42.0590   -35.1860   -20.9750 ha         1 A1L       0.153000
     44 H9          43.8180   -31.5510   -19.5290 ha         1 A1L       0.131000
     45 H10         42.0250   -31.3760   -17.8340 ha         1 A1L       0.125000
     46 H11         40.2690   -33.0690   -17.7030 ha         1 A1L       0.110000
     47 H12         38.5340   -40.3520   -19.2540 h1         1 A1L       0.046700
     48 H13         39.3130   -38.8730   -19.8590 h1         1 A1L       0.046700
     49 H14         38.6240   -41.3630   -21.4940 h1         1 A1L       0.101700
     50 H15         41.2450   -40.2470   -20.3890 h1         1 A1L       0.043700
     51 H16         40.6480   -42.0590   -19.2610 ho         1 A1L       0.520000
     52 H17         42.3620   -41.1520   -22.3140 h1         1 A1L       0.075700
     53 H18         41.0110   -43.1370   -22.3270 ho         1 A1L       0.532000
     54 H19         40.4080   -40.3500   -24.1020 h2         1 A1L       0.134700
     55 H20         43.7330   -39.3980   -26.9600 h5         1 A1L       0.048100
     56 H21         45.3150   -35.5780   -25.3010 hn         1 A1L       0.512000
     57 H22         44.5230   -35.2730   -23.8000 hn         1 A1L       0.512000
     58 H23         41.0300   -37.7670   -21.3950 h5         1 A1L       0.054800
@<TRIPOS>BOND
     1     1     2 2   
     2     2     3 2   
     3     2     4 1   
     4     2    18 1   
     5     4     5 1   
     6     4    37 1   
     7     5     6 2   
     8     5     7 1   
     9     7     8 1   
    10     7    38 1   
    11     7    39 1   
    12     8     9 1   
    13     8    10 1   
    14     8    40 1   
    15     9    41 1   
    16     9    42 1   
    17    10    11 ar  
    18    10    17 ar  
    19    11    12 ar  
    20    11    43 1   
    21    12    13 1   
    22    12    15 ar  
    23    13    14 3   
    24    15    16 ar  
    25    15    44 1   
    26    16    17 ar  
    27    16    45 1   
    28    17    46 1   
    29    18    19 1   
    30    19    20 1   
    31    19    47 1   
    32    19    48 1   
    33    20    21 1   
    34    20    26 1   
    35    20    49 1   
    36    21    22 1   
    37    21    23 1   
    38    21    50 1   
    39    22    51 1   
    40    23    24 1   
    41    23    25 1   
    42    23    52 1   
    43    24    53 1   
    44    25    26 1   
    45    25    27 1   
    46    25    54 1   
    47    27    28 1   
    48    27    36 1   
    49    28    29 ar  
    50    28    34 ar  
    51    29    30 ar  
    52    30    31 ar  
    53    30    55 1   
    54    31    32 ar  
    55    32    33 1   
    56    32    34 ar  
    57    33    56 1   
    58    33    57 1   
    59    34    35 1   
    60    35    36 2   
    61    36    58 1   
@<TRIPOS>SUBSTRUCTURE
     1 A1L         1 TEMP              0 ****  ****    0 ROOT
