@<TRIPOS>MOLECULE
A1L
   57    60     1     0     0
SMALL
abcg2


@<TRIPOS>ATOM
      1 BR          42.7970   -35.0400   -21.0860 br         1 A1L      -0.057100
      2 C5          42.3280   -33.6800   -19.8520 ca         1 A1L      -0.025900
      3 C4          43.0960   -32.5220   -19.8530 ca         1 A1L      -0.081000
      4 C3          42.7750   -31.4830   -18.9940 ca         1 A1L      -0.101000
      5 C2          41.6890   -31.6090   -18.1420 ca         1 A1L      -0.093000
      6 C6          41.2360   -33.8380   -18.9950 ca         1 A1L      -0.100300
      7 C1          40.9380   -32.7740   -18.1470 ca         1 A1L      -0.113000
      8 C7          40.3700   -35.0900   -18.9950 c3         1 A1L       0.220800
      9 N1          39.7160   -35.4020   -17.7330 n8         1 A1L      -1.029200
     10 C8          39.3120   -34.9790   -20.1050 c3         1 A1L      -0.167400
     11 C9          38.4960   -36.2250   -20.3880 c          1 A1L       0.627100
     12 O1          38.0470   -36.4860   -21.4790 o          1 A1L      -0.529100
     13 N2          38.2900   -37.0140   -19.2790 ns         1 A1L      -0.665300
     14 S           37.2540   -38.2950   -19.2290 s6         1 A1L       1.444500
     15 O3          37.4030   -38.8550   -17.9070 o          1 A1L      -0.545500
     16 O4          35.9540   -37.9360   -19.7290 o          1 A1L      -0.545500
     17 O2          37.8260   -39.2960   -20.3200 os         1 A1L      -0.546700
     18 C10         39.1230   -39.8880   -20.1300 c3         1 A1L       0.204600
     19 C11         39.4330   -40.6730   -21.3760 c5         1 A1L       0.129300
     20 C12         40.7850   -41.3920   -21.3150 c5         1 A1L       0.091300
     21 O6          40.7460   -42.6410   -20.6950 oh         1 A1L      -0.705000
     22 C13         41.1040   -41.5360   -22.8040 c5         1 A1L       0.140300
     23 O7          40.3800   -42.5820   -23.3900 oh         1 A1L      -0.700000
     24 C14         40.5380   -40.2290   -23.3670 c5         1 A1L       0.315300
     25 O5          39.5400   -39.7960   -22.4890 os         1 A1L      -0.418000
     26 N3          41.5490   -39.1900   -23.4810 na         1 A1L      -0.302300
     27 C16         42.4250   -39.0690   -24.5210 ca         1 A1L       0.126500
     28 N5          42.5340   -39.8450   -25.5970 nb         1 A1L      -0.217000
     29 C18         43.4920   -39.4230   -26.4050 ca         1 A1L       0.183900
     30 N6          44.2980   -38.3750   -26.2560 nb         1 A1L      -0.301000
     31 C19         44.1770   -37.6070   -25.1670 ca         1 A1L       0.451900
     32 N7          44.9810   -36.5540   -25.0170 nv         1 A1L      -1.065900
     33 C17         43.1920   -37.9540   -24.2240 ca         1 A1L      -0.096600
     34 N4          42.8020   -37.4040   -23.0330 nc         1 A1L      -0.575100
     35 C15         41.8270   -38.1620   -22.6230 cd         1 A1L       0.420700
     36 H1          43.9410   -32.4270   -20.5220 ha         1 A1L       0.132000
     37 H2          43.3740   -30.5820   -18.9960 ha         1 A1L       0.123000
     38 H3          41.4260   -30.8030   -17.4690 ha         1 A1L       0.121000
     39 H4          40.1000   -32.8500   -17.4670 ha         1 A1L       0.107000
     40 H5          41.0090   -35.9500   -19.2120 h1         1 A1L       0.080700
     41 H6          40.3900   -35.5840   -17.0000 hn         1 A1L       0.424500
     42 H7          39.1040   -34.6590   -17.4160 hn         1 A1L       0.424500
     43 H9          39.7720   -34.6770   -21.0450 hc         1 A1L       0.085200
     44 H10         38.6030   -34.1850   -19.8420 hc         1 A1L       0.085200
     45 H11         38.7270   -36.6600   -18.3860 hn         1 A1L       0.400500
     46 H12         39.1050   -40.5610   -19.2690 h1         1 A1L       0.050700
     47 H13         39.8760   -39.1130   -19.9600 h1         1 A1L       0.050700
     48 H14         38.6390   -41.4090   -21.5520 h1         1 A1L       0.101700
     49 H15         41.5340   -40.7320   -20.8550 h1         1 A1L       0.048700
     50 H16         40.8690   -42.5340   -19.7480 ho         1 A1L       0.520000
     51 H17         42.1800   -41.6260   -22.9890 h1         1 A1L       0.076700
     52 H18         40.5760   -43.3960   -22.9130 ho         1 A1L       0.531000
     53 H19         40.1340   -40.3860   -24.3720 h2         1 A1L       0.131700
     54 H20         43.6450   -40.0030   -27.3090 h5         1 A1L       0.048100
     55 H21         45.6730   -36.3420   -25.7150 hn         1 A1L       0.507000
     56 H22         44.9120   -35.9550   -24.2130 hn         1 A1L       0.507000
     57 H23         41.2730   -38.0080   -21.7100 h5         1 A1L       0.067800
@<TRIPOS>BOND
     1     1     2 1   
     2     2     3 ar  
     3     2     6 ar  
     4     3     4 ar  
     5     3    36 1   
     6     4     5 ar  
     7     4    37 1   
     8     5     7 ar  
     9     5    38 1   
    10     6     7 ar  
    11     6     8 1   
    12     7    39 1   
    13     8     9 1   
    14     8    10 1   
    15     8    40 1   
    16     9    41 1   
    17     9    42 1   
    18    10    11 1   
    19    10    43 1   
    20    10    44 1   
    21    11    12 2   
    22    11    13 1   
    23    13    14 1   
    24    13    45 1   
    25    14    15 2   
    26    14    16 2   
    27    14    17 1   
    28    17    18 1   
    29    18    19 1   
    30    18    46 1   
    31    18    47 1   
    32    19    20 1   
    33    19    25 1   
    34    19    48 1   
    35    20    21 1   
    36    20    22 1   
    37    20    49 1   
    38    21    50 1   
    39    22    23 1   
    40    22    24 1   
    41    22    51 1   
    42    23    52 1   
    43    24    25 1   
    44    24    26 1   
    45    24    53 1   
    46    26    27 1   
    47    26    35 1   
    48    27    28 ar  
    49    27    33 ar  
    50    28    29 ar  
    51    29    30 ar  
    52    29    54 1   
    53    30    31 ar  
    54    31    32 1   
    55    31    33 ar  
    56    32    55 1   
    57    32    56 1   
    58    33    34 1   
    59    34    35 2   
    60    35    57 1   
@<TRIPOS>SUBSTRUCTURE
     1 A1L         1 TEMP              0 ****  ****    0 ROOT
