@<TRIPOS>MOLECULE
A1L
   58    61     1     0     0
SMALL
No Charge or Current Charge


@<TRIPOS>ATOM
      1 O4          36.1160   -38.9600   -18.3530 o          1 A1L      -0.541500
      2 S           36.2060   -38.2210   -19.6160 s6         1 A1L       1.445500
      3 O3          35.0010   -37.7710   -20.3190 o          1 A1L      -0.541500
      4 N2          37.1840   -36.9140   -19.3480 ns         1 A1L      -0.664300
      5 C9          37.6530   -36.0220   -20.2520 c          1 A1L       0.623100
      6 O1          37.3440   -36.0400   -21.4310 o          1 A1L      -0.520100
      7 C8          38.5710   -34.9500   -19.6750 c3         1 A1L      -0.170400
      8 C7          40.0470   -35.2860   -19.9510 c3         1 A1L       0.222800
      9 N1          40.5070   -36.3220   -19.0220 n8         1 A1L      -1.028200
     10 C6          40.9770   -34.0820   -19.8390 ca         1 A1L      -0.133300
     11 C5          41.9590   -33.8680   -20.8290 ca         1 A1L      -0.062000
     12 C4          42.8370   -32.7690   -20.7450 ca         1 A1L      -0.013000
     13 C10         43.8350   -32.5640   -21.7580 cg         1 A1L       0.346000
     14 N3          44.6540   -32.3920   -22.5740 n1         1 A1L      -0.471000
     15 C3          42.7340   -31.8750   -19.6620 ca         1 A1L      -0.063000
     16 C2          41.7610   -32.0830   -18.6700 ca         1 A1L      -0.110000
     17 C1          40.8880   -33.1810   -18.7550 ca         1 A1L      -0.088000
     18 O2          37.1520   -39.0530   -20.6670 os         1 A1L      -0.545700
     19 C11         38.3590   -39.6350   -20.1410 c3         1 A1L       0.203600
     20 C12         39.0960   -40.3560   -21.2980 c5         1 A1L       0.129300
     21 C13         40.4380   -41.0410   -20.9020 c5         1 A1L       0.091300
     22 O6          40.2650   -42.2770   -20.1860 oh         1 A1L      -0.705000
     23 C14         41.0220   -41.2980   -22.3200 c5         1 A1L       0.139300
     24 O7          40.4050   -42.4720   -22.8690 oh         1 A1L      -0.699000
     25 C15         40.6210   -39.9660   -23.0530 c5         1 A1L       0.311300
     26 O5          39.4930   -39.4170   -22.3240 os         1 A1L      -0.419000
     27 N4          41.6700   -38.9520   -23.1080 na         1 A1L      -0.297300
     28 C17         42.6350   -38.7780   -24.0650 ca         1 A1L       0.133500
     29 N6          42.8850   -39.4680   -25.1960 nb         1 A1L      -0.222000
     30 C19         43.9360   -39.0340   -25.9320 ca         1 A1L       0.188900
     31 N7          44.7480   -37.9890   -25.6460 nb         1 A1L      -0.305000
     32 C20         44.4700   -37.3220   -24.5160 ca         1 A1L       0.454900
     33 N8          45.2850   -36.2740   -24.2260 nv         1 A1L      -1.057900
     34 C18         43.3970   -37.7040   -23.6820 ca         1 A1L      -0.098600
     35 N5          42.9700   -37.1500   -22.4800 nc         1 A1L      -0.571100
     36 C16         41.9220   -37.9360   -22.1700 cd         1 A1L       0.404700
     37 H1          37.5170   -36.8980   -18.4010 hn         1 A1L       0.398500
     38 H2          38.3380   -34.0020   -20.1710 hc         1 A1L       0.085700
     39 H3          38.4200   -34.8590   -18.5940 hc         1 A1L       0.085700
     40 H4          40.1200   -35.6840   -20.9750 h1         1 A1L       0.063700
     41 H5          41.4940   -36.5150   -19.2230 hn         1 A1L       0.425500
     42 H6          40.5540   -35.9120   -18.0820 hn         1 A1L       0.425500
     43 H8          42.0430   -34.5570   -21.6680 ha         1 A1L       0.153000
     44 H9          43.4070   -31.0230   -19.5870 ha         1 A1L       0.131000
     45 H10         41.6850   -31.3930   -17.8320 ha         1 A1L       0.125000
     46 H11         40.1480   -33.3280   -17.9730 ha         1 A1L       0.110000
     47 H12         38.1340   -40.3690   -19.3560 h1         1 A1L       0.046700
     48 H13         39.0240   -38.8680   -19.7210 h1         1 A1L       0.046700
     49 H14         38.4030   -41.0860   -21.7400 h1         1 A1L       0.101700
     50 H15         41.0790   -40.3480   -20.3390 h1         1 A1L       0.043700
     51 H16         40.5210   -42.1200   -19.2440 ho         1 A1L       0.520000
     52 H17         42.1150   -41.4190   -22.2850 h1         1 A1L       0.075700
     53 H18         40.1720   -42.9950   -22.0590 ho         1 A1L       0.532000
     54 H19         40.3390   -40.1780   -24.0930 h2         1 A1L       0.134700
     55 H20         44.1500   -39.5840   -26.8480 h5         1 A1L       0.048100
     56 H21         46.1920   -36.2340   -24.6820 hn         1 A1L       0.512000
     57 H22         45.2280   -35.8920   -23.2860 hn         1 A1L       0.512000
     58 H23         41.3060   -37.8340   -21.2850 h5         1 A1L       0.054800
@<TRIPOS>BOND
     1     1     2 2   
     2     2     3 2   
     3     2     4 1   
     4     2    18 1   
     5     4     5 1   
     6     4    37 1   
     7     5     6 2   
     8     5     7 1   
     9     7     8 1   
    10     7    38 1   
    11     7    39 1   
    12     8     9 1   
    13     8    10 1   
    14     8    40 1   
    15     9    41 1   
    16     9    42 1   
    17    10    11 ar  
    18    10    17 ar  
    19    11    12 ar  
    20    11    43 1   
    21    12    13 1   
    22    12    15 ar  
    23    13    14 3   
    24    15    16 ar  
    25    15    44 1   
    26    16    17 ar  
    27    16    45 1   
    28    17    46 1   
    29    18    19 1   
    30    19    20 1   
    31    19    47 1   
    32    19    48 1   
    33    20    21 1   
    34    20    26 1   
    35    20    49 1   
    36    21    22 1   
    37    21    23 1   
    38    21    50 1   
    39    22    51 1   
    40    23    24 1   
    41    23    25 1   
    42    23    52 1   
    43    24    53 1   
    44    25    26 1   
    45    25    27 1   
    46    25    54 1   
    47    27    28 1   
    48    27    36 1   
    49    28    29 ar  
    50    28    34 ar  
    51    29    30 ar  
    52    30    31 ar  
    53    30    55 1   
    54    31    32 ar  
    55    32    33 1   
    56    32    34 ar  
    57    33    56 1   
    58    33    57 1   
    59    34    35 1   
    60    35    36 2   
    61    36    58 1   
@<TRIPOS>SUBSTRUCTURE
     1 A1L         1 TEMP              0 ****  ****    0 ROOT
