@<TRIPOS>MOLECULE
A1L
   33    35     1     0     0
SMALL
abcg2


@<TRIPOS>ATOM
      1 C1          27.2020   -21.1520    23.6400 ca         1 A1L      -0.108300
      2 C2          27.0550   -20.4860    22.4410 ca         1 A1L      -0.036000
      3 C3          25.7970   -20.0020    22.1020 ca         1 A1L      -0.123000
      4 C4          24.7250   -20.1970    22.9550 ca         1 A1L      -0.055000
      5 C5          24.8640   -20.9100    24.1470 ca         1 A1L      -0.113600
      6 C6          27.9940   -22.3900    25.4730 ca         1 A1L      -0.138300
      7 O1          22.8770   -20.1190    25.0640 os         1 A1L      -0.434100
      8 C7          26.6280   -22.1550    25.6590 cp         1 A1L      -0.015000
      9 C8          26.0070   -22.6350    26.8060 ca         1 A1L      -0.067000
     10 C9          26.7530   -23.3650    27.7240 ca         1 A1L      -0.098000
     11 C10         28.0990   -23.6290    27.5080 ca         1 A1L      -0.101000
     12 C11         28.7330   -23.1330    26.3740 ca         1 A1L      -0.083000
     13 C12         28.4800   -21.7410    24.1940 c5         1 A1L       0.226600
     14 C13         29.4630   -20.6080    24.5280 c3         1 A1L       0.277000
     15 C14         23.6290   -21.1970    24.9280 c          1 A1L       0.607700
     16 C15         21.6210   -20.2710    25.7300 c3         1 A1L       0.149900
     17 O2          23.3310   -22.2860    25.3490 o          1 A1L      -0.481000
     18 C           26.1250   -21.3950    24.4990 cp         1 A1L       0.040000
     19 O           29.0440   -22.6030    23.2540 oh         1 A1L      -0.616000
     20 F           28.9160   -19.7200    25.3620 f          1 A1L      -0.110667
     21 F1          30.5760   -21.0700    25.1120 f          1 A1L      -0.110667
     22 F2          29.8500   -19.9470    23.4330 f          1 A1L      -0.110667
     23 H           27.8890   -20.3390    21.7690 ha         1 A1L       0.137000
     24 H1          25.6530   -19.4720    21.1700 ha         1 A1L       0.124000
     25 H2          23.7540   -19.8140    22.6700 ha         1 A1L       0.127000
     26 H3          24.9620   -22.4600    27.0030 ha         1 A1L       0.137000
     27 H4          26.2700   -23.7410    28.6160 ha         1 A1L       0.119000
     28 H5          28.6580   -24.2130    28.2260 ha         1 A1L       0.119000
     29 H6          29.7860   -23.3320    26.2190 ha         1 A1L       0.121000
     30 H8          21.1630   -19.2870    25.7270 h1         1 A1L       0.050367
     31 H10         20.9760   -20.9750    25.2050 h1         1 A1L       0.050367
     32 H9          21.7590   -20.6050    26.7580 h1         1 A1L       0.050367
     33 H7          29.6930   -23.1810    23.6730 ho         1 A1L       0.464000
@<TRIPOS>BOND
     1     1     2 ar  
     2     1    13 1   
     3     1    18 ar  
     4     2     3 ar  
     5     2    23 1   
     6     3     4 ar  
     7     3    24 1   
     8     4     5 ar  
     9     4    25 1   
    10     5    15 1   
    11     5    18 ar  
    12     6     8 ar  
    13     6    12 ar  
    14     6    13 1   
    15     7    15 1   
    16     7    16 1   
    17     8     9 ar  
    18     8    18 1   
    19     9    10 ar  
    20     9    26 1   
    21    10    11 ar  
    22    10    27 1   
    23    11    12 ar  
    24    11    28 1   
    25    12    29 1   
    26    13    14 1   
    27    13    19 1   
    28    14    20 1   
    29    14    21 1   
    30    14    22 1   
    31    15    17 2   
    32    16    30 1   
    33    16    31 1   
    34    16    32 1   
    35    19    33 1   
@<TRIPOS>SUBSTRUCTURE
     1 A1L         1 TEMP              0 ****  ****    0 ROOT
