@<TRIPOS>MOLECULE
A1L
   32    34     1     0     0
SMALL
No Charge or Current Charge


@<TRIPOS>ATOM
      1 C1          28.1460   -22.4080    26.1300 ca         1 A1L      -0.064300
      2 C2          27.0350   -21.2110    24.3170 ca         1 A1L      -0.165300
      3 C3          29.4410   -20.5190    24.8590 c3         1 A1L      -0.073700
      4 C4          26.7840   -22.2550    26.4110 cp         1 A1L      -0.150500
      5 C5          28.9990   -23.1190    26.9890 ca         1 A1L      -0.080000
      6 C6          26.1270   -21.5350    25.3240 cp         1 A1L       0.409500
      7 C7          26.6220   -20.5170    23.1720 ca         1 A1L      -0.052000
      8 C8          28.9760   -19.3820    25.8060 c3         1 A1L      -0.087600
      9 C9          30.8970   -20.9260    25.2110 c3         1 A1L      -0.087600
     10 C10         26.2380   -22.7910    27.5960 ca         1 A1L      -0.064000
     11 C11         28.4580   -23.6560    28.1750 ca         1 A1L      -0.106000
     12 C12         25.2520   -20.1930    23.1090 ca         1 A1L      -0.168000
     13 C13         27.0870   -23.4880    28.4800 ca         1 A1L      -0.115000
     14 C14         24.3910   -20.5680    24.1690 ca         1 A1L       0.337900
     15 N           24.8150   -21.2340    25.2730 nb         1 A1L      -0.647000
     16 C           28.4150   -21.7060    24.7750 c5         1 A1L       0.282600
     17 O           28.8960   -22.6530    23.8270 oh         1 A1L      -0.631000
     18 H           29.4940   -20.0720    23.8580 hc         1 A1L       0.039700
     19 H2          30.0470   -23.2660    26.7440 ha         1 A1L       0.123000
     20 H3          27.3150   -20.2380    22.3810 ha         1 A1L       0.117000
     21 H6          29.6930   -18.5530    25.7970 hc         1 A1L       0.039867
     22 H4          28.0030   -18.9800    25.4990 hc         1 A1L       0.039867
     23 H5          28.8870   -19.7420    26.8380 hc         1 A1L       0.039867
     24 H9          31.5750   -20.0760    25.0620 hc         1 A1L       0.039867
     25 H7          30.9820   -21.2320    26.2590 hc         1 A1L       0.039867
     26 H8          31.2540   -21.7460    24.5770 hc         1 A1L       0.039867
     27 H10         25.1790   -22.6760    27.8190 ha         1 A1L       0.132000
     28 H11         29.0990   -24.2080    28.8590 ha         1 A1L       0.113000
     29 H12         24.8510   -19.6570    22.2540 ha         1 A1L       0.123000
     30 H13         26.6820   -23.9090    29.3970 ha         1 A1L       0.115000
     31 H14         23.3300   -20.3240    24.1310 h4         1 A1L       0.019100
     32 H1          28.9380   -22.1830    22.9690 ho         1 A1L       0.444000
@<TRIPOS>BOND
     1     1     4 ar  
     2     1     5 ar  
     3     1    16 1   
     4     2     6 ar  
     5     2     7 ar  
     6     2    16 1   
     7     3     8 1   
     8     3     9 1   
     9     3    16 1   
    10     3    18 1   
    11     4     6 1   
    12     4    10 ar  
    13     5    11 ar  
    14     5    19 1   
    15     6    15 ar  
    16     7    12 ar  
    17     7    20 1   
    18     8    21 1   
    19     8    22 1   
    20     8    23 1   
    21     9    24 1   
    22     9    25 1   
    23     9    26 1   
    24    10    13 ar  
    25    10    27 1   
    26    11    13 ar  
    27    11    28 1   
    28    12    14 ar  
    29    12    29 1   
    30    13    30 1   
    31    14    15 ar  
    32    14    31 1   
    33    16    17 1   
    34    17    32 1   
@<TRIPOS>SUBSTRUCTURE
     1 A1L         1 TEMP              0 ****  ****    0 ROOT
