@<TRIPOS>MOLECULE
A1L
   56    58     1     0     0
SMALL
abcg2


@<TRIPOS>ATOM
      1 C4           8.2650    43.6530    -6.2230 c6         1 A1L      -0.067400
      2 C5           9.0920    44.8770    -5.8390 c6         1 A1L      -0.068400
      3 C6           9.5810    49.3990    -5.6570 ca         1 A1L      -0.127000
      4 C7          10.9500    49.6070    -5.6280 ca         1 A1L      -0.132000
      5 C8          11.8520    48.6040    -5.9710 ca         1 A1L      -0.043300
      6 C10          9.1130    48.1760    -6.0950 ca         1 A1L      -0.106300
      7 C13          7.6810    47.7540    -6.2150 c5         1 A1L      -0.030100
      8 C15         12.3650    46.2140    -6.6130 c3         1 A1L       0.053600
      9 C17         13.0600    46.3090    -8.0130 c          1 A1L       0.728000
     10 C20         13.0260    43.8790    -4.8170 c3         1 A1L      -0.100433
     11 C21         14.5170    45.5300    -3.7040 c3         1 A1L      -0.100433
     12 C            9.1660    45.9410    -6.9490 c5         1 A1L       0.017300
     13 O           13.3690    46.1550    -5.6280 os         1 A1L      -0.434000
     14 C1           9.6400    45.2760    -8.2480 c6         1 A1L      -0.068400
     15 C11          9.9880    47.1550    -6.4790 ca         1 A1L      -0.071300
     16 C12          7.7720    46.5790    -7.1800 c5         1 A1L      -0.076400
     17 C16          7.8250    41.8620    -7.9380 c3         1 A1L      -0.083100
     18 C18         13.2040    45.3570    -4.4630 c3         1 A1L       0.191000
     19 C19         12.0520    45.8420    -3.5830 c3         1 A1L      -0.100433
     20 C2           8.7510    44.0990    -8.6380 c6         1 A1L      -0.067400
     21 C3           8.7130    43.0340    -7.5450 c6         1 A1L      -0.066700
     22 C9          11.3740    47.3350    -6.3630 ca         1 A1L      -0.003300
     23 O2          14.0980    45.6400    -8.1530 o          1 A1L      -0.707500
     24 H5           7.2040    43.9180    -6.2960 hc         1 A1L       0.026450
     25 H6           8.3330    42.9090    -5.4230 hc         1 A1L       0.026450
     26 H8          10.1050    44.5430    -5.6020 hc         1 A1L       0.056950
     27 H7           8.6990    45.3220    -4.9190 hc         1 A1L       0.056950
     28 H9           8.8960    50.1860    -5.3660 ha         1 A1L       0.090000
     29 H10         11.3350    50.5770    -5.3320 ha         1 A1L       0.090000
     30 H14          7.2880    47.4430    -5.2410 hc         1 A1L       0.032700
     31 H13          7.0270    48.5500    -6.5760 hc         1 A1L       0.032700
     32 H18         11.8150    45.2660    -6.6300 h1         1 A1L       0.026700
     33 H26         13.0510    43.2730    -3.9100 hc         1 A1L       0.031589
     34 H25         12.0750    43.6710    -5.3100 hc         1 A1L       0.031589
     35 H27         13.8290    43.5380    -5.4730 hc         1 A1L       0.031589
     36 H30         14.5010    44.9560    -2.7780 hc         1 A1L       0.031589
     37 H29         15.3650    45.1840    -4.2990 hc         1 A1L       0.031589
     38 H28         14.6860    46.5780    -3.4460 hc         1 A1L       0.031589
     39 H            9.6680    46.0190    -9.0490 hc         1 A1L       0.056950
     40 H1          10.6590    44.9020    -8.1460 hc         1 A1L       0.056950
     41 H11          7.7210    46.9550    -8.2060 hc         1 A1L       0.037200
     42 H12          6.9520    45.8710    -7.0610 hc         1 A1L       0.037200
     43 H17         13.7930    48.6250    -4.9990 hc         1 A1L       0.040367
     44 H16         13.8850    48.5460    -6.7470 hc         1 A1L       0.040367
     45 H15         13.4280    50.0460    -5.9630 hc         1 A1L       0.040367
     46 H20          7.8130    41.0900    -7.1660 hc         1 A1L       0.023367
     47 H21          6.7950    42.1920    -8.0920 hc         1 A1L       0.023367
     48 H19          8.1650    41.3980    -8.8660 hc         1 A1L       0.023367
     49 H23         12.0260    45.2680    -2.6550 hc         1 A1L       0.031589
     50 H24         12.1740    46.8950    -3.3240 hc         1 A1L       0.031589
     51 H22         11.0830    45.7280    -4.0670 hc         1 A1L       0.031589
     52 H2           7.7310    44.4390    -8.8500 hc         1 A1L       0.026450
     53 H3           9.1210    43.6570    -9.5680 hc         1 A1L       0.026450
     54 H4           9.7380    42.6610    -7.4110 hc         1 A1L       0.051700
     55 C14         13.3150    48.9630    -5.9180 c3         1 A1L      -0.034800
     56 O1          12.4900    47.0070    -8.8710 o          1 A1L      -0.707500
@<TRIPOS>BOND
     1     1     2 1   
     2     1    21 1   
     3     1    24 1   
     4     1    25 1   
     5     2    12 1   
     6     2    26 1   
     7     2    27 1   
     8     3     4 ar  
     9     3     6 ar  
    10     3    28 1   
    11     4     5 ar  
    12     4    29 1   
    13     5    22 ar  
    14     5    55 1   
    15     6     7 1   
    16     6    15 ar  
    17     7    16 1   
    18     7    30 1   
    19     7    31 1   
    20     8     9 1   
    21     8    13 1   
    22     8    22 1   
    23     8    32 1   
    24     9    23 1   
    25     9    56 1   
    26    10    18 1   
    27    10    33 1   
    28    10    34 1   
    29    10    35 1   
    30    11    18 1   
    31    11    36 1   
    32    11    37 1   
    33    11    38 1   
    34    12    14 1   
    35    12    15 1   
    36    12    16 1   
    37    13    18 1   
    38    14    20 1   
    39    14    39 1   
    40    14    40 1   
    41    15    22 ar  
    42    16    41 1   
    43    16    42 1   
    44    17    21 1   
    45    17    46 1   
    46    17    47 1   
    47    17    48 1   
    48    18    19 1   
    49    19    49 1   
    50    19    50 1   
    51    19    51 1   
    52    20    21 1   
    53    20    52 1   
    54    20    53 1   
    55    21    54 1   
    56    43    55 1   
    57    44    55 1   
    58    45    55 1   
@<TRIPOS>SUBSTRUCTURE
     1 A1L         1 TEMP              0 ****  ****    0 ROOT
