@<TRIPOS>MOLECULE
A1L
   32    34     1     0     0
SMALL
abcg2


@<TRIPOS>ATOM
      1 C1          28.1280   -22.3960    26.0590 ca         1 A1L      -0.064300
      2 C2          27.0510   -21.2320    24.3310 ca         1 A1L      -0.165300
      3 C3          29.3910   -20.5110    24.8700 c3         1 A1L      -0.073700
      4 C4          26.7960   -22.1950    26.4280 cp         1 A1L      -0.150500
      5 C5          28.9650   -23.1420    26.8670 ca         1 A1L      -0.080000
      6 C6          26.1250   -21.4740    25.3440 cp         1 A1L       0.409500
      7 C7          26.6260   -20.6010    23.1830 ca         1 A1L      -0.052000
      8 C8          28.8790   -19.4600    25.8500 c3         1 A1L      -0.087600
      9 C9          30.8170   -20.9110    25.2360 c3         1 A1L      -0.087600
     10 C10         26.2940   -22.6860    27.6220 ca         1 A1L      -0.064000
     11 C11         28.4650   -23.6440    28.0680 ca         1 A1L      -0.106000
     12 C12         25.2830   -20.2360    23.1150 ca         1 A1L      -0.168000
     13 C13         27.1480   -23.4090    28.4470 ca         1 A1L      -0.115000
     14 C14         24.4490   -20.5120    24.1900 ca         1 A1L       0.337900
     15 N           24.8500   -21.1270    25.3030 nb         1 A1L      -0.647000
     16 C           28.4320   -21.7230    24.7310 c5         1 A1L       0.282600
     17 O           28.9410   -22.6890    23.8440 oh         1 A1L      -0.631000
     18 H           29.4200   -20.0490    23.8740 hc         1 A1L       0.039700
     19 H2          29.9890   -23.3440    26.5840 ha         1 A1L       0.123000
     20 H3          27.3010   -20.3870    22.3620 ha         1 A1L       0.117000
     21 H6          29.5750   -18.6210    25.8830 hc         1 A1L       0.039867
     22 H4          27.9030   -19.0610    25.5740 hc         1 A1L       0.039867
     23 H5          28.8060   -19.8620    26.8620 hc         1 A1L       0.039867
     24 H9          31.4730   -20.0450    25.1330 hc         1 A1L       0.039867
     25 H7          30.8870   -21.2460    26.2720 hc         1 A1L       0.039867
     26 H8          31.2110   -21.6990    24.5950 hc         1 A1L       0.039867
     27 H10         25.2620   -22.5210    27.9020 ha         1 A1L       0.132000
     28 H11         29.1110   -24.2270    28.7120 ha         1 A1L       0.113000
     29 H12         24.8840   -19.7410    22.2400 ha         1 A1L       0.123000
     30 H13         26.7820   -23.8050    29.3860 ha         1 A1L       0.115000
     31 H14         23.4040   -20.2240    24.1500 h4         1 A1L       0.019100
     32 H1          29.2590   -22.2420    23.0500 ho         1 A1L       0.444000
@<TRIPOS>BOND
     1     1     4 ar  
     2     1     5 ar  
     3     1    16 1   
     4     2     6 ar  
     5     2     7 ar  
     6     2    16 1   
     7     3     8 1   
     8     3     9 1   
     9     3    16 1   
    10     3    18 1   
    11     4     6 1   
    12     4    10 ar  
    13     5    11 ar  
    14     5    19 1   
    15     6    15 ar  
    16     7    12 ar  
    17     7    20 1   
    18     8    21 1   
    19     8    22 1   
    20     8    23 1   
    21     9    24 1   
    22     9    25 1   
    23     9    26 1   
    24    10    13 ar  
    25    10    27 1   
    26    11    13 ar  
    27    11    28 1   
    28    12    14 ar  
    29    12    29 1   
    30    13    30 1   
    31    14    15 ar  
    32    14    31 1   
    33    16    17 1   
    34    17    32 1   
@<TRIPOS>SUBSTRUCTURE
     1 A1L         1 TEMP              0 ****  ****    0 ROOT
