@<TRIPOS>MOLECULE
A1L
   79    82     1     0     0
SMALL
No Charge or Current Charge


@<TRIPOS>ATOM
      1 C4          34.0580    29.1740     6.5560 c6         1 A1L      -0.067900
      2 C5          34.6380    30.5280     6.0660 c6         1 A1L      -0.068900
      3 C6          38.2250    33.4370     5.7880 ca         1 A1L      -0.167600
      4 C7          37.6270    34.6870     5.5590 ca         1 A1L      -0.088000
      5 C8          36.2680    34.9240     5.8190 ca         1 A1L      -0.048300
      6 C10         37.4110    32.4080     6.3280 ca         1 A1L      -0.076300
      7 C13         37.8180    30.9680     6.5750 c5         1 A1L      -0.036100
      8 C15         33.9010    34.1040     6.4180 c3         1 A1L       0.048600
      9 C20         32.5230    35.2130     3.0640 c3         1 A1L      -0.101433
     10 C21         39.6920    33.2970     5.4230 c          1 A1L       0.623700
     11 C22         32.6300    27.9900     8.3270 c3         1 A1L      -0.083100
     12 C24         41.9850    30.9730     4.9580 c3         1 A1L      -0.086900
     13 C26         42.5450    31.8910     7.3410 c3         1 A1L      -0.086900
     14 C28         44.0450    31.5110     7.2960 c3         1 A1L      -0.066400
     15 N           40.4520    32.4560     6.1990 ns         1 A1L      -0.511900
     16 C           35.4220    31.3050     7.1730 c5         1 A1L       0.018300
     17 O           33.3620    34.8100     5.2440 os         1 A1L      -0.434000
     18 C1          34.4800    31.4680     8.4160 c6         1 A1L      -0.068900
     19 C11         36.0490    32.6090     6.6020 ca         1 A1L      -0.081300
     20 C12         36.7440    30.5620     7.6150 c5         1 A1L      -0.078400
     21 C16         33.5580    34.8710     7.7530 c          1 A1L       0.730000
     22 C18         34.2000    33.3550     3.4350 c3         1 A1L      -0.101433
     23 C19         31.7880    33.1590     4.3480 c3         1 A1L      -0.101433
     24 C2          33.9500    30.1040     8.9330 c6         1 A1L      -0.067900
     25 C23         41.8620    32.1360     5.9750 c3         1 A1L       0.115700
     26 C25         43.4120    30.7880     4.3930 c3         1 A1L      -0.066400
     27 C27         44.3730    29.9190     5.2380 c3         1 A1L      -0.069900
     28 C29         44.3040    30.0800     6.7750 c3         1 A1L      -0.069900
     29 C3          33.1740    29.3510     7.8200 c6         1 A1L      -0.066700
     30 C9          35.4300    33.8680     6.2890 ca         1 A1L       0.017700
     31 O2          32.6510    35.6970     7.7500 o          1 A1L      -0.705500
     32 O3          40.1810    33.9050     4.4800 o          1 A1L      -0.626100
     33 H5          34.8680    28.4610     6.7580 hc         1 A1L       0.027700
     34 H6          33.4600    28.7270     5.7500 hc         1 A1L       0.027700
     35 H8          33.8060    31.1400     5.7080 hc         1 A1L       0.057700
     36 H7          35.2840    30.3550     5.1960 hc         1 A1L       0.057700
     37 H9          38.2370    35.4990     5.1690 ha         1 A1L       0.107000
     38 H13         37.7520    30.3670     5.6610 hc         1 A1L       0.037700
     39 H12         38.8080    30.8100     7.0050 hc         1 A1L       0.037700
     40 H17         33.3950    33.1430     6.4920 h1         1 A1L       0.030700
     41 H26         32.1980    34.7850     2.1080 hc         1 A1L       0.032700
     42 H25         31.6840    35.7790     3.4840 hc         1 A1L       0.032700
     43 H24         33.3410    35.9140     2.8590 hc         1 A1L       0.032700
     44 H29         32.0500    27.4810     7.5480 hc         1 A1L       0.024033
     45 H30         33.4450    27.3210     8.6280 hc         1 A1L       0.024033
     46 H28         31.9720    28.1250     9.1940 hc         1 A1L       0.024033
     47 H32         41.6230    30.0370     5.3990 hc         1 A1L       0.045200
     48 H33         41.3230    31.1900     4.1100 hc         1 A1L       0.045200
     49 H36         42.4460    32.8060     7.9380 hc         1 A1L       0.045200
     50 H37         41.9980    31.1120     7.8860 hc         1 A1L       0.045200
     51 H41         44.6100    32.2440     6.7060 hc         1 A1L       0.036700
     52 H40         44.4350    31.5730     8.3200 hc         1 A1L       0.036700
     53 H27         39.9790    32.0300     6.9830 hn         1 A1L       0.319500
     54 H           35.0140    31.9840     9.2240 hc         1 A1L       0.057700
     55 H1          33.6040    32.0810     8.1950 hc         1 A1L       0.057700
     56 H10         37.0610    30.9020     8.6080 hc         1 A1L       0.039200
     57 H11         36.6420    29.4750     7.6890 hc         1 A1L       0.039200
     58 H16         35.3180    36.4300     4.5590 hc         1 A1L       0.043033
     59 H15         35.0270    36.6700     6.2950 hc         1 A1L       0.043033
     60 H14         36.5840    37.0760     5.6020 hc         1 A1L       0.043033
     61 H19         33.9440    32.9340     2.4560 hc         1 A1L       0.032700
     62 H20         35.0470    34.0370     3.2960 hc         1 A1L       0.032700
     63 H18         34.5260    32.5270     4.0680 hc         1 A1L       0.032700
     64 H22         31.3630    32.7620     3.4180 hc         1 A1L       0.032700
     65 H21         32.0820    32.3030     4.9600 hc         1 A1L       0.032700
     66 H23         30.9940    33.7000     4.8760 hc         1 A1L       0.032700
     67 H2          34.7800    29.4870     9.3030 hc         1 A1L       0.027700
     68 H3          33.2890    30.2760     9.7940 hc         1 A1L       0.027700
     69 H31         42.3370    33.0210     5.5300 h1         1 A1L       0.069700
     70 H35         43.3380    30.3320     3.3980 hc         1 A1L       0.036700
     71 H34         43.8650    31.7750     4.2330 hc         1 A1L       0.036700
     72 H39         44.1950    28.8630     5.0000 hc         1 A1L       0.031200
     73 H38         45.3980    30.1330     4.9080 hc         1 A1L       0.031200
     74 H43         43.5320    29.4090     7.1720 hc         1 A1L       0.031200
     75 H42         45.2530    29.7210     7.1930 hc         1 A1L       0.031200
     76 H4          32.2940    29.9500     7.5450 hc         1 A1L       0.053700
     77 C14         35.7670    36.3470     5.5560 c3         1 A1L      -0.033800
     78 C17         32.9810    34.1000     4.0360 c3         1 A1L       0.190000
     79 O1          34.2320    34.6530     8.7520 o          1 A1L      -0.705500
@<TRIPOS>BOND
     1     1     2 1   
     2     1    29 1   
     3     1    33 1   
     4     1    34 1   
     5     2    16 1   
     6     2    35 1   
     7     2    36 1   
     8     3     4 ar  
     9     3     6 ar  
    10     3    10 1   
    11     4     5 ar  
    12     4    37 1   
    13     5    30 ar  
    14     5    77 1   
    15     6     7 1   
    16     6    19 ar  
    17     7    20 1   
    18     7    38 1   
    19     7    39 1   
    20     8    17 1   
    21     8    21 1   
    22     8    30 1   
    23     8    40 1   
    24     9    41 1   
    25     9    42 1   
    26     9    43 1   
    27     9    78 1   
    28    10    15 1   
    29    10    32 2   
    30    11    29 1   
    31    11    44 1   
    32    11    45 1   
    33    11    46 1   
    34    12    25 1   
    35    12    26 1   
    36    12    47 1   
    37    12    48 1   
    38    13    14 1   
    39    13    25 1   
    40    13    49 1   
    41    13    50 1   
    42    14    28 1   
    43    14    51 1   
    44    14    52 1   
    45    15    25 1   
    46    15    53 1   
    47    16    18 1   
    48    16    19 1   
    49    16    20 1   
    50    17    78 1   
    51    18    24 1   
    52    18    54 1   
    53    18    55 1   
    54    19    30 ar  
    55    20    56 1   
    56    20    57 1   
    57    21    31 1   
    58    21    79 1   
    59    22    61 1   
    60    22    62 1   
    61    22    63 1   
    62    22    78 1   
    63    23    64 1   
    64    23    65 1   
    65    23    66 1   
    66    23    78 1   
    67    24    29 1   
    68    24    67 1   
    69    24    68 1   
    70    25    69 1   
    71    26    27 1   
    72    26    70 1   
    73    26    71 1   
    74    27    28 1   
    75    27    72 1   
    76    27    73 1   
    77    28    74 1   
    78    28    75 1   
    79    29    76 1   
    80    58    77 1   
    81    59    77 1   
    82    60    77 1   
@<TRIPOS>SUBSTRUCTURE
     1 A1L         1 TEMP              0 ****  ****    0 ROOT
