@<TRIPOS>MOLECULE
A1L
   79    82     1     0     0
SMALL
abcg2


@<TRIPOS>ATOM
      1 C4          33.9290    29.2080     6.3680 c6         1 A1L      -0.067900
      2 C5          34.6040    30.4980     5.9080 c6         1 A1L      -0.068900
      3 C6          38.2420    33.1970     5.6540 ca         1 A1L      -0.167600
      4 C7          37.7080    34.4700     5.4880 ca         1 A1L      -0.088000
      5 C8          36.3890    34.7680     5.7980 ca         1 A1L      -0.048300
      6 C10         37.4210    32.2080     6.1740 ca         1 A1L      -0.076300
      7 C13         37.7510    30.7610     6.4100 c5         1 A1L      -0.036100
      8 C15         34.0560    34.0380     6.4370 c3         1 A1L       0.048600
      9 C20         32.4450    35.4170     3.4300 c3         1 A1L      -0.101433
     10 C21         39.6530    32.9750     5.2120 c          1 A1L       0.623700
     11 C22         32.4640    28.0970     8.0860 c3         1 A1L      -0.083100
     12 C24         41.9940    30.6990     5.3070 c3         1 A1L      -0.086900
     13 C26         42.6730    32.3800     7.1440 c3         1 A1L      -0.086900
     14 C28         44.1590    32.0340     7.0800 c3         1 A1L      -0.066400
     15 N           40.4850    32.4580     6.1300 ns         1 A1L      -0.511900
     16 C           35.4180    31.1920     7.0180 c5         1 A1L       0.018300
     17 O           33.5300    34.8340     5.4020 os         1 A1L      -0.434000
     18 C1          34.5430    31.3640     8.2670 c6         1 A1L      -0.068900
     19 C11         36.0780    32.4740     6.4800 ca         1 A1L      -0.081300
     20 C12         36.6550    30.3350     7.3740 c5         1 A1L      -0.078400
     21 C16         33.7420    34.7510     7.7970 c          1 A1L       0.730000
     22 C18         33.9350    33.4210     3.4460 c3         1 A1L      -0.101433
     23 C19         31.7310    33.3650     4.6460 c3         1 A1L      -0.101433
     24 C2          33.9410    30.0400     8.7250 c6         1 A1L      -0.067900
     25 C23         41.8750    32.1200     5.8710 c3         1 A1L       0.115700
     26 C25         43.3650    30.4130     4.6920 c3         1 A1L      -0.066400
     27 C27         44.4320    29.8920     5.6550 c3         1 A1L      -0.069900
     28 C29         44.4420    30.5310     7.0450 c3         1 A1L      -0.069900
     29 C3          33.0900    29.4060     7.6280 c6         1 A1L      -0.066700
     30 C9          35.5300    33.7430     6.2470 ca         1 A1L       0.017700
     31 O2          32.5920    35.2070     7.9080 o          1 A1L      -0.705500
     32 O3          40.0130    33.2920     4.0840 o          1 A1L      -0.626100
     33 H5          34.6790    28.4320     6.5590 hc         1 A1L       0.027700
     34 H6          33.3020    28.8230     5.5580 hc         1 A1L       0.027700
     35 H8          33.8280    31.1770     5.5460 hc         1 A1L       0.057700
     36 H7          35.2480    30.2950     5.0470 hc         1 A1L       0.057700
     37 H9          38.3470    35.2660     5.1230 ha         1 A1L       0.107000
     38 H13         37.6970    30.2040     5.4680 hc         1 A1L       0.037700
     39 H12         38.7450    30.5800     6.8150 hc         1 A1L       0.037700
     40 H17         33.5130    33.0880     6.4740 h1         1 A1L       0.030700
     41 H26         31.9680    35.0720     2.5120 hc         1 A1L       0.032700
     42 H25         31.7160    36.0140     3.9810 hc         1 A1L       0.032700
     43 H24         33.2770    36.0670     3.1510 hc         1 A1L       0.032700
     44 H29         31.8360    27.6610     7.3060 hc         1 A1L       0.024033
     45 H30         33.2350    27.3650     8.3360 hc         1 A1L       0.024033
     46 H28         31.8410    28.2400     8.9720 hc         1 A1L       0.024033
     47 H32         41.7480    29.9650     6.0810 hc         1 A1L       0.045200
     48 H33         41.2340    30.5920     4.5300 hc         1 A1L       0.045200
     49 H36         42.5610    33.4370     7.3990 hc         1 A1L       0.045200
     50 H37         42.2270    31.8140     7.9710 hc         1 A1L       0.045200
     51 H41         44.6320    32.5380     6.2310 hc         1 A1L       0.036700
     52 H40         44.6260    32.4570     7.9720 hc         1 A1L       0.036700
     53 H27         40.1230    32.2760     7.0530 hn         1 A1L       0.319500
     54 H           35.1380    31.8120     9.0670 hc         1 A1L       0.057700
     55 H1          33.7190    32.0520     8.0790 hc         1 A1L       0.057700
     56 H10         36.9710    30.5710     8.3950 hc         1 A1L       0.039200
     57 H11         36.4640    29.2630     7.3430 hc         1 A1L       0.039200
     58 H16         35.4480    36.3950     4.7070 hc         1 A1L       0.043033
     59 H15         35.3170    36.5410     6.4500 hc         1 A1L       0.043033
     60 H14         36.8520    36.8470     5.6610 hc         1 A1L       0.043033
     61 H19         33.4610    33.0360     2.5420 hc         1 A1L       0.032700
     62 H20         34.7840    34.0370     3.1430 hc         1 A1L       0.032700
     63 H18         34.3210    32.5680     4.0030 hc         1 A1L       0.032700
     64 H22         31.1950    33.0470     3.7510 hc         1 A1L       0.032700
     65 H21         32.0190    32.4580     5.1820 hc         1 A1L       0.032700
     66 H23         31.0340    33.9210     5.2770 hc         1 A1L       0.032700
     67 H2          34.7290    29.3410     9.0270 hc         1 A1L       0.027700
     68 H3          33.3290    30.2110     9.6160 hc         1 A1L       0.027700
     69 H31         42.2320    32.8090     5.1000 h1         1 A1L       0.069700
     70 H35         43.2520    29.6840     3.8860 hc         1 A1L       0.036700
     71 H34         43.7220    31.3260     4.2050 hc         1 A1L       0.036700
     72 H39         44.3150    28.8120     5.7760 hc         1 A1L       0.031200
     73 H38         45.4100    30.0340     5.1870 hc         1 A1L       0.031200
     74 H43         43.7120    30.0300     7.6880 hc         1 A1L       0.031200
     75 H42         45.4150    30.3320     7.5010 hc         1 A1L       0.031200
     76 H4          32.2840    30.1110     7.3860 hc         1 A1L       0.053700
     77 C14         35.9690    36.2070     5.6460 c3         1 A1L      -0.033800
     78 C17         32.9300    34.2330     4.2610 c3         1 A1L       0.190000
     79 O1          34.6480    34.7630     8.6480 o          1 A1L      -0.705500
@<TRIPOS>BOND
     1     1     2 1   
     2     1    29 1   
     3     1    33 1   
     4     1    34 1   
     5     2    16 1   
     6     2    35 1   
     7     2    36 1   
     8     3     4 ar  
     9     3     6 ar  
    10     3    10 1   
    11     4     5 ar  
    12     4    37 1   
    13     5    30 ar  
    14     5    77 1   
    15     6     7 1   
    16     6    19 ar  
    17     7    20 1   
    18     7    38 1   
    19     7    39 1   
    20     8    17 1   
    21     8    21 1   
    22     8    30 1   
    23     8    40 1   
    24     9    41 1   
    25     9    42 1   
    26     9    43 1   
    27     9    78 1   
    28    10    15 1   
    29    10    32 2   
    30    11    29 1   
    31    11    44 1   
    32    11    45 1   
    33    11    46 1   
    34    12    25 1   
    35    12    26 1   
    36    12    47 1   
    37    12    48 1   
    38    13    14 1   
    39    13    25 1   
    40    13    49 1   
    41    13    50 1   
    42    14    28 1   
    43    14    51 1   
    44    14    52 1   
    45    15    25 1   
    46    15    53 1   
    47    16    18 1   
    48    16    19 1   
    49    16    20 1   
    50    17    78 1   
    51    18    24 1   
    52    18    54 1   
    53    18    55 1   
    54    19    30 ar  
    55    20    56 1   
    56    20    57 1   
    57    21    31 1   
    58    21    79 1   
    59    22    61 1   
    60    22    62 1   
    61    22    63 1   
    62    22    78 1   
    63    23    64 1   
    64    23    65 1   
    65    23    66 1   
    66    23    78 1   
    67    24    29 1   
    68    24    67 1   
    69    24    68 1   
    70    25    69 1   
    71    26    27 1   
    72    26    70 1   
    73    26    71 1   
    74    27    28 1   
    75    27    72 1   
    76    27    73 1   
    77    28    74 1   
    78    28    75 1   
    79    29    76 1   
    80    58    77 1   
    81    59    77 1   
    82    60    77 1   
@<TRIPOS>SUBSTRUCTURE
     1 A1L         1 TEMP              0 ****  ****    0 ROOT
