@<TRIPOS>MOLECULE
A1L
   33    35     1     0     0
SMALL
No Charge or Current Charge


@<TRIPOS>ATOM
      1 C1          27.2190   -21.0850    23.5600 ca         1 A1L      -0.108300
      2 C2          27.0990   -20.3430    22.3740 ca         1 A1L      -0.036000
      3 C3          25.8320   -19.8480    22.0150 ca         1 A1L      -0.123000
      4 C4          24.7070   -20.1250    22.8190 ca         1 A1L      -0.055000
      5 C5          24.8430   -20.8950    23.9950 ca         1 A1L      -0.113600
      6 C6          27.9610   -22.3910    25.4760 ca         1 A1L      -0.138300
      7 O1          22.8950   -20.2160    25.1970 os         1 A1L      -0.434100
      8 C7          26.5890   -22.1190    25.5820 cp         1 A1L      -0.015000
      9 C8          25.9070   -22.5200    26.7570 ca         1 A1L      -0.067000
     10 C9          26.6000   -23.2320    27.7560 ca         1 A1L      -0.098000
     11 C10         27.9710   -23.5290    27.6060 ca         1 A1L      -0.101000
     12 C11         28.6680   -23.0980    26.4630 ca         1 A1L      -0.083000
     13 C12         28.4690   -21.7330    24.1820 c5         1 A1L       0.226600
     14 C13         29.6090   -20.6800    24.4580 c3         1 A1L       0.277000
     15 C14         23.6400   -21.2940    24.7920 c          1 A1L       0.607700
     16 C15         21.6970   -20.4660    25.9560 c3         1 A1L       0.149900
     17 O2          23.3320   -22.4590    25.0080 o          1 A1L      -0.481000
     18 C           26.1260   -21.3620    24.3960 cp         1 A1L       0.040000
     19 O           28.9550   -22.7500    23.2990 oh         1 A1L      -0.616000
     20 F           29.1890   -19.7020    25.2940 f          1 A1L      -0.110667
     21 F1          30.6990   -21.2470    25.0280 f          1 A1L      -0.110667
     22 F2          30.0360   -20.0750    23.3240 f          1 A1L      -0.110667
     23 H           27.9630   -20.1540    21.7410 ha         1 A1L       0.137000
     24 H1          25.7160   -19.2670    21.1030 ha         1 A1L       0.124000
     25 H2          23.7260   -19.7650    22.5150 ha         1 A1L       0.127000
     26 H3          24.8640   -22.2780    26.9220 ha         1 A1L       0.137000
     27 H4          26.0760   -23.5480    28.6550 ha         1 A1L       0.119000
     28 H5          28.4960   -24.0760    28.3870 ha         1 A1L       0.119000
     29 H6          29.7320   -23.3010    26.3610 ha         1 A1L       0.121000
     30 H8          21.2040   -19.5210    26.2140 h1         1 A1L       0.050367
     31 H10         20.9880   -21.0740    25.3790 h1         1 A1L       0.050367
     32 H9          21.9290   -20.9950    26.8890 h1         1 A1L       0.050367
     33 H7          29.5970   -23.2830    23.8150 ho         1 A1L       0.464000
@<TRIPOS>BOND
     1     1     2 ar  
     2     1    13 1   
     3     1    18 ar  
     4     2     3 ar  
     5     2    23 1   
     6     3     4 ar  
     7     3    24 1   
     8     4     5 ar  
     9     4    25 1   
    10     5    15 1   
    11     5    18 ar  
    12     6     8 ar  
    13     6    12 ar  
    14     6    13 1   
    15     7    15 1   
    16     7    16 1   
    17     8     9 ar  
    18     8    18 1   
    19     9    10 ar  
    20     9    26 1   
    21    10    11 ar  
    22    10    27 1   
    23    11    12 ar  
    24    11    28 1   
    25    12    29 1   
    26    13    14 1   
    27    13    19 1   
    28    14    20 1   
    29    14    21 1   
    30    14    22 1   
    31    15    17 2   
    32    16    30 1   
    33    16    31 1   
    34    16    32 1   
    35    19    33 1   
@<TRIPOS>SUBSTRUCTURE
     1 A1L         1 TEMP              0 ****  ****    0 ROOT
