@<TRIPOS>MOLECULE
A1L
   56    58     1     0     0
SMALL
No Charge or Current Charge


@<TRIPOS>ATOM
      1 C4           8.1870    43.6030    -6.2480 c6         1 A1L      -0.067400
      2 C5           9.0800    44.8100    -5.8540 c6         1 A1L      -0.068400
      3 C6           9.6010    49.3670    -5.5910 ca         1 A1L      -0.127000
      4 C7          10.9760    49.6080    -5.5770 ca         1 A1L      -0.132000
      5 C8          11.8880    48.6060    -5.9660 ca         1 A1L      -0.043300
      6 C10          9.1350    48.1320    -6.0440 ca         1 A1L      -0.106300
      7 C13          7.6840    47.7590    -6.1140 c5         1 A1L      -0.030100
      8 C15         12.4270    46.1790    -6.6690 c3         1 A1L       0.053600
      9 C17         13.0590    46.3380    -8.1070 c          1 A1L       0.728000
     10 C20         13.0830    43.8650    -4.7140 c3         1 A1L      -0.100433
     11 C21         14.5620    45.5880    -3.5930 c3         1 A1L      -0.100433
     12 C            9.1550    45.9110    -6.9600 c5         1 A1L       0.017300
     13 O           13.4680    46.1050    -5.6320 os         1 A1L      -0.434000
     14 C1           9.6230    45.2310    -8.2910 c6         1 A1L      -0.068400
     15 C11          9.9940    47.1230    -6.4730 ca         1 A1L      -0.071300
     16 C12          7.7650    46.6460    -7.1960 c5         1 A1L      -0.076400
     17 C16          7.7100    41.7990    -8.0070 c3         1 A1L      -0.083100
     18 C18         13.2580    45.3730    -4.3960 c3         1 A1L       0.191000
     19 C19         12.0600    45.9660    -3.6100 c3         1 A1L      -0.100433
     20 C2           8.6950    44.0610    -8.7090 c6         1 A1L      -0.067400
     21 C3           8.6300    42.9790    -7.5980 c6         1 A1L      -0.066700
     22 C9          11.4150    47.3160    -6.3740 ca         1 A1L      -0.003300
     23 O2          14.2440    46.0680    -8.2720 o          1 A1L      -0.707500
     24 H5           7.1340    43.9080    -6.2990 hc         1 A1L       0.026450
     25 H6           8.2410    42.8430    -5.4560 hc         1 A1L       0.026450
     26 H8          10.0850    44.4350    -5.6430 hc         1 A1L       0.056950
     27 H7           8.7140    45.2440    -4.9140 hc         1 A1L       0.056950
     28 H9           8.9040    50.1380    -5.2710 ha         1 A1L       0.090000
     29 H10         11.3380    50.5790    -5.2480 ha         1 A1L       0.090000
     30 H14          7.3160    47.3750    -5.1560 hc         1 A1L       0.032700
     31 H13          7.0350    48.5880    -6.4190 hc         1 A1L       0.032700
     32 H18         11.8980    45.2270    -6.6840 h1         1 A1L       0.026700
     33 H26         13.1230    43.2740    -3.7910 hc         1 A1L       0.031589
     34 H25         12.1250    43.6500    -5.1940 hc         1 A1L       0.031589
     35 H27         13.8840    43.5120    -5.3750 hc         1 A1L       0.031589
     36 H30         14.5190    45.0640    -2.6310 hc         1 A1L       0.031589
     37 H29         15.4290    45.2080    -4.1470 hc         1 A1L       0.031589
     38 H28         14.7260    46.6540    -3.3910 hc         1 A1L       0.031589
     39 H            9.6610    45.9760    -9.0980 hc         1 A1L       0.056950
     40 H1          10.6320    44.8220    -8.2110 hc         1 A1L       0.056950
     41 H11          7.7440    47.1110    -8.1890 hc         1 A1L       0.037200
     42 H12          6.8980    45.9790    -7.1600 hc         1 A1L       0.037200
     43 H17         13.8360    48.6340    -4.9880 hc         1 A1L       0.040367
     44 H16         13.9320    48.5620    -6.7600 hc         1 A1L       0.040367
     45 H15         13.5130    50.0670    -5.9610 hc         1 A1L       0.040367
     46 H20          7.7000    41.0200    -7.2350 hc         1 A1L       0.023367
     47 H21          6.6760    42.1320    -8.1600 hc         1 A1L       0.023367
     48 H19          8.0530    41.3340    -8.9400 hc         1 A1L       0.023367
     49 H23         11.9940    45.5090    -2.6150 hc         1 A1L       0.031589
     50 H24         12.1760    47.0480    -3.4750 hc         1 A1L       0.031589
     51 H22         11.1090    45.7810    -4.1150 hc         1 A1L       0.031589
     52 H2           7.6870    44.4360    -8.9340 hc         1 A1L       0.026450
     53 H3           9.0710    43.6150    -9.6400 hc         1 A1L       0.026450
     54 H4           9.6350    42.5530    -7.4700 hc         1 A1L       0.051700
     55 C14         13.3710    48.9810    -5.9170 c3         1 A1L      -0.034800
     56 O1          12.3590    46.7600    -9.0190 o          1 A1L      -0.707500
@<TRIPOS>BOND
     1     1     2 1   
     2     1    21 1   
     3     1    24 1   
     4     1    25 1   
     5     2    12 1   
     6     2    26 1   
     7     2    27 1   
     8     3     4 ar  
     9     3     6 ar  
    10     3    28 1   
    11     4     5 ar  
    12     4    29 1   
    13     5    22 ar  
    14     5    55 1   
    15     6     7 1   
    16     6    15 ar  
    17     7    16 1   
    18     7    30 1   
    19     7    31 1   
    20     8     9 1   
    21     8    13 1   
    22     8    22 1   
    23     8    32 1   
    24     9    23 1   
    25     9    56 1   
    26    10    18 1   
    27    10    33 1   
    28    10    34 1   
    29    10    35 1   
    30    11    18 1   
    31    11    36 1   
    32    11    37 1   
    33    11    38 1   
    34    12    14 1   
    35    12    15 1   
    36    12    16 1   
    37    13    18 1   
    38    14    20 1   
    39    14    39 1   
    40    14    40 1   
    41    15    22 ar  
    42    16    41 1   
    43    16    42 1   
    44    17    21 1   
    45    17    46 1   
    46    17    47 1   
    47    17    48 1   
    48    18    19 1   
    49    19    49 1   
    50    19    50 1   
    51    19    51 1   
    52    20    21 1   
    53    20    52 1   
    54    20    53 1   
    55    21    54 1   
    56    43    55 1   
    57    44    55 1   
    58    45    55 1   
@<TRIPOS>SUBSTRUCTURE
     1 A1L         1 TEMP              0 ****  ****    0 ROOT
