@<TRIPOS>MOLECULE
A1L
   48    49     1     0     0
SMALL
abcg2


@<TRIPOS>ATOM
      1 C4C          4.4580    17.3920   -21.0000 c3         1 A1L       0.147900
      2 O4C          3.6790    17.8730   -22.0720 os         1 A1L      -0.466000
      3 C1B          4.1760    17.5590   -23.3320 c6         1 A1L       0.346300
      4 O2B          3.3220    19.6970   -24.1250 oh         1 A1L      -0.690000
      5 C2B          3.3550    18.3170   -24.3790 c6         1 A1L       0.159300
      6 C4A         -0.4950    12.8240   -26.6820 c6         1 A1L       0.191500
      7 C3B          1.9310    17.7830   -24.4170 c6         1 A1L       0.145300
      8 O3B          1.2550    18.4160   -25.4830 oh         1 A1L      -0.654000
      9 C4B          1.9410    16.2580   -24.5980 c6         1 A1L       0.136500
     10 N4B          0.6340    15.6450   -24.4760 n7         1 A1L      -0.904400
     11 C5B          2.8820    15.5750   -23.5940 c6         1 A1L       0.180300
     12 O5B          4.1660    16.1900   -23.5980 os         1 A1L      -0.479000
     13 C6B          3.1050    14.1130   -23.9240 c3         1 A1L      -0.079100
     14 C1A         -0.2730    15.6130   -25.6170 c6         1 A1L       0.241700
     15 C2A         -1.4420    14.6790   -25.3090 c6         1 A1L       0.177300
     16 O2A         -2.0210    15.0580   -24.0870 oh         1 A1L      -0.726000
     17 C3A         -0.9550    13.2380   -25.2880 c6         1 A1L       0.096300
     18 O3A         -2.0240    12.4200   -24.8460 oh         1 A1L      -0.678000
     19 O4A          0.2290    11.6120   -26.6500 oh         1 A1L      -0.718000
     20 C5A          0.3630    13.8840   -27.3260 c2         1 A1L      -0.092400
     21 C7A          0.4240    15.1300   -26.8570 c2         1 A1L      -0.211200
     22 C6A          1.1060    13.4950   -28.5700 c3         1 A1L       0.204800
     23 O6A          0.1860    13.0150   -29.5290 oh         1 A1L      -0.661000
     24 H1           4.0770    17.8490   -20.0890 h1         1 A1L       0.032700
     25 H2           4.3990    16.3050   -20.8910 h1         1 A1L       0.032700
     26 H3           5.5130    17.6690   -21.1110 h1         1 A1L       0.032700
     27 H4           5.2360    17.8520   -23.4050 h2         1 A1L       0.061700
     28 H5           4.2040    20.0550   -24.2680 ho         1 A1L       0.503000
     29 H6           3.8220    18.1020   -25.3520 h1         1 A1L       0.053700
     30 H7          -1.3950    12.7110   -27.3050 h1         1 A1L       0.063700
     31 H8           1.4440    18.0170   -23.4590 h1         1 A1L       0.059700
     32 H9           0.3300    18.5170   -25.2470 ho         1 A1L       0.447000
     33 H10          2.3360    16.0480   -25.5980 h1         1 A1L       0.075700
     34 H11          0.1480    16.0050   -23.6630 hn         1 A1L       0.440000
     35 H13          2.4360    15.6470   -22.5920 h1         1 A1L       0.047700
     36 H14          3.7870    13.6540   -23.2070 hc         1 A1L       0.045700
     37 H15          2.1650    13.5680   -23.8880 hc         1 A1L       0.045700
     38 H16          3.5260    13.9950   -24.9240 hc         1 A1L       0.045700
     39 H17         -0.6980    16.6010   -25.8470 h1         1 A1L       0.039700
     40 H18         -2.1700    14.7910   -26.1300 h1         1 A1L       0.048700
     41 H19         -2.5910    14.3340   -23.8020 ho         1 A1L       0.524000
     42 H20         -0.1030    13.1680   -24.6010 h1         1 A1L       0.076700
     43 H21         -1.6690    11.6930   -24.3260 ho         1 A1L       0.451000
     44 H22         -0.3940    10.8910   -26.5190 ho         1 A1L       0.505000
     45 H24          1.0070    15.8630   -27.4050 ha         1 A1L       0.188000
     46 H26          1.8530    12.7320   -28.3230 h1         1 A1L       0.033700
     47 H27          1.6580    14.3670   -28.9440 h1         1 A1L       0.033700
     48 H28          0.6710    12.5010   -30.1800 ho         1 A1L       0.444000
@<TRIPOS>BOND
     1     1     2 1   
     2     1    24 1   
     3     1    25 1   
     4     1    26 1   
     5     2     3 1   
     6     3     5 1   
     7     3    12 1   
     8     3    27 1   
     9     4     5 1   
    10     4    28 1   
    11     5     7 1   
    12     5    29 1   
    13     6    17 1   
    14     6    19 1   
    15     6    20 1   
    16     6    30 1   
    17     7     8 1   
    18     7     9 1   
    19     7    31 1   
    20     8    32 1   
    21     9    10 1   
    22     9    11 1   
    23     9    33 1   
    24    10    14 1   
    25    10    34 1   
    26    11    12 1   
    27    11    13 1   
    28    11    35 1   
    29    13    36 1   
    30    13    37 1   
    31    13    38 1   
    32    14    15 1   
    33    14    21 1   
    34    14    39 1   
    35    15    16 1   
    36    15    17 1   
    37    15    40 1   
    38    16    41 1   
    39    17    18 1   
    40    17    42 1   
    41    18    43 1   
    42    19    44 1   
    43    20    21 2   
    44    20    22 1   
    45    21    45 1   
    46    22    23 1   
    47    22    46 1   
    48    22    47 1   
    49    23    48 1   
@<TRIPOS>SUBSTRUCTURE
     1 A1L         1 TEMP              0 ****  ****    0 ROOT
