@<TRIPOS>MOLECULE
A1L
   48    49     1     0     0
SMALL
No Charge or Current Charge


@<TRIPOS>ATOM
      1 C4C          4.9610    17.4830   -21.0330 c3         1 A1L       0.147900
      2 O4C          3.7430    17.7960   -21.7290 os         1 A1L      -0.466000
      3 C1B          3.8800    18.2150   -23.1040 c6         1 A1L       0.346300
      4 O2B          1.9390    19.7930   -22.8940 oh         1 A1L      -0.690000
      5 C2B          2.5210    18.7350   -23.7050 c6         1 A1L       0.159300
      6 C4A         -1.1550    12.7250   -26.7140 c6         1 A1L       0.191500
      7 C3B          1.5200    17.5420   -23.8760 c6         1 A1L       0.145300
      8 O3B          0.2930    17.9680   -24.5110 oh         1 A1L      -0.654000
      9 C4B          2.1850    16.3690   -24.6810 c6         1 A1L       0.136500
     10 N4B          1.2650    15.1940   -24.8230 n7         1 A1L      -0.904400
     11 C5B          3.5280    15.9730   -23.9900 c6         1 A1L       0.180300
     12 O5B          4.4000    17.1220   -23.8890 os         1 A1L      -0.479000
     13 C6B          4.3190    14.8980   -24.7780 c3         1 A1L      -0.079100
     14 C1A          0.4080    15.2230   -26.0310 c6         1 A1L       0.241700
     15 C2A         -1.1010    15.0410   -25.6580 c6         1 A1L       0.177300
     16 O2A         -1.4400    15.8040   -24.4790 oh         1 A1L      -0.726000
     17 C3A         -1.4150    13.5410   -25.4080 c6         1 A1L       0.096300
     18 O3A         -2.7800    13.3850   -24.9470 oh         1 A1L      -0.678000
     19 O4A         -1.3010    11.3190   -26.4420 oh         1 A1L      -0.718000
     20 C5A          0.2290    13.0320   -27.3120 c2         1 A1L      -0.092400
     21 C7A          0.9070    14.1550   -26.9860 c2         1 A1L      -0.211200
     22 C6A          0.7530    12.0190   -28.3260 c3         1 A1L       0.204800
     23 O6A          1.3370    12.6850   -29.4560 oh         1 A1L      -0.661000
     24 H1           4.7460    17.2040   -19.9940 h1         1 A1L       0.032700
     25 H2           5.4820    16.6430   -21.5100 h1         1 A1L       0.032700
     26 H3           5.6370    18.3490   -21.0220 h1         1 A1L       0.032700
     27 H4           4.6030    19.0450   -23.1430 h2         1 A1L       0.061700
     28 H5           2.5980    20.5240   -22.8500 ho         1 A1L       0.503000
     29 H6           2.7440    19.1270   -24.7090 h1         1 A1L       0.053700
     30 H7          -1.9040    13.0360   -27.4590 h1         1 A1L       0.063700
     31 H8           1.2900    17.1610   -22.8690 h1         1 A1L       0.059700
     32 H9          -0.3030    17.1730   -24.5210 ho         1 A1L       0.447000
     33 H10          2.4540    16.7420   -25.6820 h1         1 A1L       0.075700
     34 H11          0.6280    15.1820   -24.0170 hn         1 A1L       0.440000
     35 H13          3.3270    15.5820   -22.9820 h1         1 A1L       0.047700
     36 H14          5.2780    14.6820   -24.2920 hc         1 A1L       0.045700
     37 H15          3.7610    13.9560   -24.8350 hc         1 A1L       0.045700
     38 H16          4.5260    15.2270   -25.8030 hc         1 A1L       0.045700
     39 H17          0.5010    16.1980   -26.5330 h1         1 A1L       0.039700
     40 H18         -1.7070    15.3790   -26.5120 h1         1 A1L       0.048700
     41 H19         -2.2900    15.3990   -24.1750 ho         1 A1L       0.524000
     42 H20         -0.7140    13.1780   -24.6400 h1         1 A1L       0.076700
     43 H21         -2.7840    12.6490   -24.2930 ho         1 A1L       0.451000
     44 H22         -2.2500    11.1840   -26.2160 ho         1 A1L       0.505000
     45 H24          1.8800    14.3570   -27.4310 ha         1 A1L       0.188000
     46 H26         -0.0620    11.3680   -28.6710 h1         1 A1L       0.033700
     47 H27          1.4990    11.3780   -27.8370 h1         1 A1L       0.033700
     48 H28          1.6550    11.9810   -30.0640 ho         1 A1L       0.444000
@<TRIPOS>BOND
     1     1     2 1   
     2     1    24 1   
     3     1    25 1   
     4     1    26 1   
     5     2     3 1   
     6     3     5 1   
     7     3    12 1   
     8     3    27 1   
     9     4     5 1   
    10     4    28 1   
    11     5     7 1   
    12     5    29 1   
    13     6    17 1   
    14     6    19 1   
    15     6    20 1   
    16     6    30 1   
    17     7     8 1   
    18     7     9 1   
    19     7    31 1   
    20     8    32 1   
    21     9    10 1   
    22     9    11 1   
    23     9    33 1   
    24    10    14 1   
    25    10    34 1   
    26    11    12 1   
    27    11    13 1   
    28    11    35 1   
    29    13    36 1   
    30    13    37 1   
    31    13    38 1   
    32    14    15 1   
    33    14    21 1   
    34    14    39 1   
    35    15    16 1   
    36    15    17 1   
    37    15    40 1   
    38    16    41 1   
    39    17    18 1   
    40    17    42 1   
    41    18    43 1   
    42    19    44 1   
    43    20    21 2   
    44    20    22 1   
    45    21    45 1   
    46    22    23 1   
    47    22    46 1   
    48    22    47 1   
    49    23    48 1   
@<TRIPOS>SUBSTRUCTURE
     1 A1L         1 TEMP              0 ****  ****    0 ROOT
