@<TRIPOS>MOLECULE
A1L
   40    43     1     0     0
SMALL
abcg2


@<TRIPOS>ATOM
      1 CL          38.3590    38.5000    16.7430 cl         1 A1L      -0.204000
      2 C17         38.4530    39.6190    15.4210 ca         1 A1L       0.118000
      3 C16         37.3880    40.4720    15.1760 ca         1 A1L      -0.094000
      4 C15         37.4810    41.3610    14.1160 ca         1 A1L      -0.102000
      5 C14         38.6130    41.3880    13.3140 ca         1 A1L      -0.075000
      6 C18         39.5930    39.6410    14.6360 ca         1 A1L      -0.094000
      7 C13         39.6760    40.5310    13.5700 ca         1 A1L      -0.097300
      8 C12         40.9210    40.5750    12.7220 c3         1 A1L       0.137300
      9 N3          41.2550    39.2640    12.1750 n          1 A1L      -0.270000
     10 C           40.4440    38.7760    11.1550 c          1 A1L       0.552200
     11 O           39.5170    39.4540    10.7250 o          1 A1L      -0.551000
     12 C11         42.2950    38.5670    12.6940 cc         1 A1L      -0.017400
     13 C3          42.6310    37.3160    12.2700 cd         1 A1L      -0.145200
     14 C2          41.8350    36.7700    11.2270 cd         1 A1L      -0.078000
     15 C1          40.7990    37.4620    10.6930 cc         1 A1L      -0.318200
     16 C4          43.7620    36.5820    12.8630 ca         1 A1L       0.026200
     17 C9          44.0800    36.7620    14.2340 ca         1 A1L      -0.164000
     18 C8          45.1310    36.1000    14.8240 ca         1 A1L      -0.018000
     19 C7          45.8910    35.2240    14.0450 ca         1 A1L      -0.261900
     20 C10         47.0170    34.3710    14.2600 cc         1 A1L       0.551800
     21 N           47.6630    34.1610    15.4590 nv         1 A1L      -0.960200
     22 N1          47.3350    33.7400    13.1590 nd         1 A1L      -0.579100
     23 N2          46.4500    34.1370    12.2150 na         1 A1L      -0.069400
     24 C6          45.5650    35.0330    12.6920 ca         1 A1L      -0.004200
     25 C5          44.5040    35.7120    12.0840 ca         1 A1L      -0.142000
     26 H13         36.5030    40.4430    15.7970 ha         1 A1L       0.130000
     27 H12         36.6560    42.0310    13.9100 ha         1 A1L       0.121000
     28 H11         38.6680    42.0770    12.4810 ha         1 A1L       0.124000
     29 H14         40.4100    38.9640    14.8580 ha         1 A1L       0.125000
     30 H10         40.8000    41.2840    11.9040 h1         1 A1L       0.069200
     31 H9          41.7730    40.9100    13.3140 h1         1 A1L       0.069200
     32 H8          42.8570    39.0820    13.4620 h4         1 A1L       0.202000
     33 H1          42.0460    35.7740    10.8590 ha         1 A1L       0.188000
     34 H           40.1910    37.0340     9.9070 ha         1 A1L       0.210000
     35 H4          43.4660    37.4150    14.8410 ha         1 A1L       0.111000
     36 H3          45.3490    36.2510    15.8740 ha         1 A1L       0.118000
     37 H5          48.5600    33.7100    15.3600 hn         1 A1L       0.446500
     38 H6          47.7490    34.9910    16.0250 hn         1 A1L       0.446500
     39 H7          46.5150    33.7610    11.2850 hn         1 A1L       0.378000
     40 H2          44.2920    35.5720    11.0320 ha         1 A1L       0.121000
@<TRIPOS>BOND
     1     1     2 1   
     2     2     3 ar  
     3     2     6 ar  
     4     3     4 ar  
     5     3    26 1   
     6     4     5 ar  
     7     4    27 1   
     8     5     7 ar  
     9     5    28 1   
    10     6     7 ar  
    11     6    29 1   
    12     7     8 1   
    13     8     9 1   
    14     8    30 1   
    15     8    31 1   
    16     9    10 1   
    17     9    12 1   
    18    10    11 2   
    19    10    15 1   
    20    12    13 2   
    21    12    32 1   
    22    13    14 1   
    23    13    16 1   
    24    14    15 2   
    25    14    33 1   
    26    15    34 1   
    27    16    17 ar  
    28    16    25 ar  
    29    17    18 ar  
    30    17    35 1   
    31    18    19 ar  
    32    18    36 1   
    33    19    20 1   
    34    19    24 ar  
    35    20    21 1   
    36    20    22 2   
    37    21    37 1   
    38    21    38 1   
    39    22    23 1   
    40    23    24 1   
    41    23    39 1   
    42    24    25 ar  
    43    25    40 1   
@<TRIPOS>SUBSTRUCTURE
     1 A1L         1 TEMP              0 ****  ****    0 ROOT
