@<TRIPOS>MOLECULE
A1L
   45    48     1     0     0
SMALL
No Charge or Current Charge


@<TRIPOS>ATOM
      1 C17         15.6370    46.5870    54.6290 ca         1 A1L      -0.115000
      2 C20         17.5460    44.5490    54.3790 ca         1 A1L       0.126000
      3 C12         17.3150    48.3400    53.8880 cp         1 A1L      -0.089000
      4 C14         17.9110    50.8950    52.9860 ca         1 A1L       0.338900
      5 C11         18.5960    48.9580    54.2620 cq         1 A1L       0.038000
      6 C18         15.2900    45.2580    54.9280 ca         1 A1L       0.126000
      7 C19         16.2430    44.2250    54.8080 ca         1 A1L       0.069100
      8 C21         17.8910    45.8760    54.0800 ca         1 A1L      -0.115000
      9 C10         21.8990    47.8100    55.8130 ca         1 A1L      -0.174000
     10 C1          22.0560    45.3550    58.6850 c6         1 A1L       0.165300
     11 C2          23.3100    44.5510    59.1430 c6         1 A1L       0.146100
     12 O1          24.2880    45.4260    59.7530 os         1 A1L      -0.442000
     13 C3          24.7450    46.4600    58.8500 c6         1 A1L       0.146100
     14 C4          23.5550    47.3490    58.3780 c6         1 A1L       0.165300
     15 N1          22.4180    46.5360    57.8320 nh         1 A1L      -0.795400
     16 C5          21.4690    47.1320    56.9660 ca         1 A1L       0.321000
     17 C6          20.0890    47.0610    57.2300 ca         1 A1L      -0.174000
     18 C7          19.1590    47.6550    56.3600 ca         1 A1L      -0.054500
     19 C8          19.5910    48.3270    55.1980 cq         1 A1L      -0.100000
     20 C9          20.9740    48.4050    54.9370 ca         1 A1L      -0.054500
     21 C13         16.4250    49.1040    53.0990 ca         1 A1L       0.346900
     22 N2          16.7120    50.3530    52.6570 nb         1 A1L      -0.662000
     23 C15         18.8760    50.2450    53.7750 ca         1 A1L      -0.164000
     24 C16         16.9460    46.9240    54.2060 cp         1 A1L      -0.019000
     25 F1          18.4790    43.5770    54.2500 f          1 A1L      -0.170000
     26 O2          15.9070    42.9230    55.1000 oh         1 A1L      -0.507100
     27 F2          14.0300    44.9820    55.3360 f          1 A1L      -0.170000
     28 H16         14.8840    47.3630    54.7420 ha         1 A1L       0.144000
     29 H14         18.0990    51.9000    52.6110 h4         1 A1L       0.021100
     30 H17         18.9010    46.0940    53.7410 ha         1 A1L       0.144000
     31 H12         22.9580    47.8630    55.5800 ha         1 A1L       0.116000
     32 H1          21.5090    45.6910    59.5780 h1         1 A1L       0.049450
     33 H3          23.0140    43.7790    59.8670 h1         1 A1L       0.054200
     34 H4          23.7660    44.0480    58.2780 h1         1 A1L       0.054200
     35 H5          25.4930    47.0810    59.3620 h1         1 A1L       0.054200
     36 H6          25.2280    45.9930    57.9810 h1         1 A1L       0.054200
     37 H7          23.2040    47.9500    59.2310 h1         1 A1L       0.049450
     38 H8          23.9330    48.0540    57.6240 h1         1 A1L       0.049450
     39 H9          19.7260    46.5580    58.1200 ha         1 A1L       0.116000
     40 H10         18.1010    47.5950    56.6040 ha         1 A1L       0.115500
     41 H11         21.3440    48.9080    54.0460 ha         1 A1L       0.115500
     42 H13         15.4700    48.6920    52.7770 h4         1 A1L       0.022100
     43 H15         19.7960    50.7660    54.0230 ha         1 A1L       0.127000
     44 H18         16.6960    42.3560    54.9540 ho         1 A1L       0.481000
     45 H2          21.3940    44.6740    58.1300 h1         1 A1L       0.049450
@<TRIPOS>BOND
     1     1     6 ar  
     2     1    24 ar  
     3     1    28 1   
     4     2     7 ar  
     5     2     8 ar  
     6     2    25 1   
     7     3     5 1   
     8     3    21 ar  
     9     3    24 1   
    10     4    22 ar  
    11     4    23 ar  
    12     4    29 1   
    13     5    19 1   
    14     5    23 2   
    15     6     7 ar  
    16     6    27 1   
    17     7    26 1   
    18     8    24 ar  
    19     8    30 1   
    20     9    16 ar  
    21     9    20 ar  
    22     9    31 1   
    23    10    11 1   
    24    10    15 1   
    25    10    32 1   
    26    10    45 1   
    27    11    12 1   
    28    11    33 1   
    29    11    34 1   
    30    12    13 1   
    31    13    14 1   
    32    13    35 1   
    33    13    36 1   
    34    14    15 1   
    35    14    37 1   
    36    14    38 1   
    37    15    16 1   
    38    16    17 ar  
    39    17    18 ar  
    40    17    39 1   
    41    18    19 2   
    42    18    40 1   
    43    19    20 1   
    44    20    41 1   
    45    21    22 ar  
    46    21    42 1   
    47    23    43 1   
    48    26    44 1   
@<TRIPOS>SUBSTRUCTURE
     1 A1L         1 TEMP              0 ****  ****    0 ROOT
