@<TRIPOS>MOLECULE
A1L
   40    43     1     0     0
SMALL
No Charge or Current Charge


@<TRIPOS>ATOM
      1 Cl          39.5970    39.9870    17.6960 cl         1 A1L      -0.204000
      2 C17         39.1280    40.1080    16.0050 ca         1 A1L       0.118000
      3 C16         37.7860    39.9270    15.6360 ca         1 A1L      -0.094000
      4 C15         37.4130    40.0230    14.2840 ca         1 A1L      -0.102000
      5 C14         38.3840    40.2990    13.3050 ca         1 A1L      -0.075000
      6 C18         40.0990    40.3850    15.0280 ca         1 A1L      -0.094000
      7 C13         39.7320    40.4820    13.6710 ca         1 A1L      -0.097300
      8 C12         40.7820    40.7710    12.6060 c3         1 A1L       0.137300
      9 N3          41.2600    39.5460    11.9210 n          1 A1L      -0.270000
     10 C           40.7220    39.2230    10.6610 c          1 A1L       0.552200
     11 O           39.8840    39.9050    10.0870 o          1 A1L      -0.551000
     12 C11         42.2100    38.7310    12.5460 cc         1 A1L      -0.017400
     13 C3          42.7240    37.5650    11.9870 cd         1 A1L      -0.145200
     14 C2          42.1900    37.1850    10.6940 cd         1 A1L      -0.078000
     15 C1          41.2480    37.9870    10.0840 cc         1 A1L      -0.318200
     16 C4          43.7150    36.7220    12.7150 ca         1 A1L       0.026200
     17 C9          43.9790    36.9280    14.1050 ca         1 A1L      -0.164000
     18 C8          44.9160    36.1390    14.8060 ca         1 A1L      -0.018000
     19 C7          45.5830    35.1430    14.0880 ca         1 A1L      -0.261900
     20 C10         46.5750    34.1730    14.4420 cc         1 A1L       0.551800
     21 N           47.1150    34.0360    15.6610 nv         1 A1L      -0.960200
     22 N1          46.9550    33.3990    13.4350 nd         1 A1L      -0.579100
     23 N2          46.1690    33.8870    12.3750 na         1 A1L      -0.069400
     24 C6          45.3490    34.9290    12.7710 ca         1 A1L      -0.004200
     25 C5          44.4280    35.6910    12.0430 ca         1 A1L      -0.142000
     26 H13         37.0380    39.7130    16.3950 ha         1 A1L       0.130000
     27 H12         36.3740    39.8820    13.9950 ha         1 A1L       0.121000
     28 H11         38.0870    40.3680    12.2600 ha         1 A1L       0.124000
     29 H14         41.1350    40.5230    15.3290 ha         1 A1L       0.125000
     30 H10         40.3740    41.4830    11.8780 h1         1 A1L       0.069200
     31 H9          41.6420    41.2710    13.0700 h1         1 A1L       0.069200
     32 H8          42.5030    39.1430    13.5020 h4         1 A1L       0.202000
     33 H1          42.4980    36.2720    10.1940 ha         1 A1L       0.188000
     34 H           40.8300    37.7260     9.1180 ha         1 A1L       0.210000
     35 H4          43.4480    37.6860    14.6700 ha         1 A1L       0.111000
     36 H3          45.1050    36.2990    15.8660 ha         1 A1L       0.118000
     37 H5          47.9650    33.4870    15.7190 hn         1 A1L       0.446500
     38 H6          47.0210    34.8090    16.3080 hn         1 A1L       0.446500
     39 H7          46.2260    33.4920    11.4370 hn         1 A1L       0.378000
     40 H2          44.3010    35.4910    10.9850 ha         1 A1L       0.121000
@<TRIPOS>BOND
     1     1     2 1   
     2     2     3 ar  
     3     2     6 ar  
     4     3     4 ar  
     5     3    26 1   
     6     4     5 ar  
     7     4    27 1   
     8     5     7 ar  
     9     5    28 1   
    10     6     7 ar  
    11     6    29 1   
    12     7     8 1   
    13     8     9 1   
    14     8    30 1   
    15     8    31 1   
    16     9    10 1   
    17     9    12 1   
    18    10    11 2   
    19    10    15 1   
    20    12    13 2   
    21    12    32 1   
    22    13    14 1   
    23    13    16 1   
    24    14    15 2   
    25    14    33 1   
    26    15    34 1   
    27    16    17 ar  
    28    16    25 ar  
    29    17    18 ar  
    30    17    35 1   
    31    18    19 ar  
    32    18    36 1   
    33    19    20 1   
    34    19    24 ar  
    35    20    21 1   
    36    20    22 2   
    37    21    37 1   
    38    21    38 1   
    39    22    23 1   
    40    23    24 1   
    41    23    39 1   
    42    24    25 ar  
    43    25    40 1   
@<TRIPOS>SUBSTRUCTURE
     1 A1L         1 TEMP              0 ****  ****    0 ROOT
