@<TRIPOS>MOLECULE
A1L
   45    48     1     0     0
SMALL
abcg2


@<TRIPOS>ATOM
      1 C17         15.7700    46.5740    54.6540 ca         1 A1L      -0.115000
      2 C20         17.5390    44.5450    54.1290 ca         1 A1L       0.126000
      3 C12         17.4020    48.2910    53.9110 cp         1 A1L      -0.089000
      4 C14         17.8620    50.8830    53.2050 ca         1 A1L       0.338900
      5 C11         18.5660    48.9090    54.3920 cq         1 A1L       0.038000
      6 C18         15.4140    45.2590    54.8570 ca         1 A1L       0.126000
      7 C19         16.2780    44.2000    54.6040 ca         1 A1L       0.069100
      8 C21         17.9310    45.8460    53.9100 ca         1 A1L      -0.115000
      9 C10         21.8590    47.8310    55.8680 ca         1 A1L      -0.174000
     10 C1          22.0170    45.6840    58.9290 c6         1 A1L       0.165300
     11 C2          23.1670    44.8110    59.4020 c6         1 A1L       0.146100
     12 O1          24.3130    45.5630    59.7220 os         1 A1L      -0.442000
     13 C3          24.7400    46.3040    58.6040 c6         1 A1L       0.146100
     14 C4          23.6580    47.2450    58.1120 c6         1 A1L       0.165300
     15 N1          22.4430    46.5020    57.8110 nh         1 A1L      -0.795400
     16 C5          21.4840    47.0920    57.0030 ca         1 A1L       0.321000
     17 C6          20.1080    46.9590    57.2480 ca         1 A1L      -0.174000
     18 C7          19.1690    47.5170    56.3970 ca         1 A1L      -0.054500
     19 C8          19.5450    48.2520    55.2760 cq         1 A1L      -0.100000
     20 C9          20.9130    48.3980    55.0390 ca         1 A1L      -0.054500
     21 C13         16.5470    49.0470    53.1070 ca         1 A1L       0.346900
     22 N2          16.7530    50.3060    52.7560 nb         1 A1L      -0.662000
     23 C15         18.7790    50.2350    54.0100 ca         1 A1L      -0.164000
     24 C16         17.0410    46.8830    54.1750 cp         1 A1L      -0.019000
     25 F1          18.3930    43.5400    53.8700 f          1 A1L      -0.170000
     26 O2          15.8590    42.9470    54.8270 oh         1 A1L      -0.507100
     27 F2          14.1920    44.9670    55.3190 f          1 A1L      -0.170000
     28 H16         15.0560    47.3550    54.8840 ha         1 A1L       0.144000
     29 H14         18.0260    51.9160    52.9180 h4         1 A1L       0.021100
     30 H17         18.9250    46.0440    53.5280 ha         1 A1L       0.144000
     31 H12         22.9010    47.9490    55.6070 ha         1 A1L       0.116000
     32 H1          21.6380    46.2960    59.7620 h1         1 A1L       0.049450
     33 H3          22.8660    44.2690    60.2990 h1         1 A1L       0.054200
     34 H4          23.3980    44.0730    58.6210 h1         1 A1L       0.054200
     35 H5          25.6170    46.8800    58.9050 h1         1 A1L       0.054200
     36 H6          25.0390    45.6340    57.7860 h1         1 A1L       0.054200
     37 H7          23.4600    48.0140    58.8730 h1         1 A1L       0.049450
     38 H8          24.0330    47.7540    57.2270 h1         1 A1L       0.049450
     39 H9          19.7500    46.4340    58.1220 ha         1 A1L       0.116000
     40 H10         18.1210    47.3980    56.6400 ha         1 A1L       0.115500
     41 H11         21.2530    48.9460    54.1690 ha         1 A1L       0.115500
     42 H13         15.6490    48.5800    52.7130 h4         1 A1L       0.022100
     43 H15         19.6490    50.7720    54.3650 ha         1 A1L       0.127000
     44 H18         16.5430    42.3050    54.6010 ho         1 A1L       0.481000
     45 H2          21.2110    45.0180    58.6200 h1         1 A1L       0.049450
@<TRIPOS>BOND
     1     1     6 ar  
     2     1    24 ar  
     3     1    28 1   
     4     2     7 ar  
     5     2     8 ar  
     6     2    25 1   
     7     3     5 1   
     8     3    21 ar  
     9     3    24 1   
    10     4    22 ar  
    11     4    23 ar  
    12     4    29 1   
    13     5    19 1   
    14     5    23 2   
    15     6     7 ar  
    16     6    27 1   
    17     7    26 1   
    18     8    24 ar  
    19     8    30 1   
    20     9    16 ar  
    21     9    20 ar  
    22     9    31 1   
    23    10    11 1   
    24    10    15 1   
    25    10    32 1   
    26    10    45 1   
    27    11    12 1   
    28    11    33 1   
    29    11    34 1   
    30    12    13 1   
    31    13    14 1   
    32    13    35 1   
    33    13    36 1   
    34    14    15 1   
    35    14    37 1   
    36    14    38 1   
    37    15    16 1   
    38    16    17 ar  
    39    17    18 ar  
    40    17    39 1   
    41    18    19 2   
    42    18    40 1   
    43    19    20 1   
    44    20    41 1   
    45    21    22 ar  
    46    21    42 1   
    47    23    43 1   
    48    26    44 1   
@<TRIPOS>SUBSTRUCTURE
     1 A1L         1 TEMP              0 ****  ****    0 ROOT
