@<TRIPOS>MOLECULE
A1L
   62    66     1     0     0
SMALL
No Charge or Current Charge


@<TRIPOS>ATOM
      1 C11         14.1860    -2.5170    -5.9240 ca         1 A1L      -0.067000
      2 C12         12.8120    -2.5560    -6.1930 ca         1 A1L      -0.125000
      3 C13         12.1900    -1.4710    -6.8190 ca         1 A1L      -0.078000
      4 C14         12.9440    -0.3460    -7.1790 ca         1 A1L      -0.107000
      5 C17         13.0070     3.6860    -5.0120 ca         1 A1L       0.434900
      6 C19         13.4750     2.5070    -2.7630 ca         1 A1L       0.248000
      7 C20         13.8020     2.8430    -1.4220 ca         1 A1L       0.129100
      8 C22         13.9940     4.6050     0.3120 c3         1 A1L       0.149900
      9 C24         14.3360     0.5010    -0.9560 ca         1 A1L      -0.022300
     10 C25         14.7840    -0.5830     0.0280 c6         1 A1L      -0.030100
     11 C26         15.1500    -1.9190    -0.6590 c6         1 A1L       0.162800
     12 C29         14.0760    -1.2910    -2.7600 c6         1 A1L       0.211100
     13 C30         13.9840     0.1590    -2.2770 ca         1 A1L      -0.095300
     14 C33         12.2830     4.9420    -6.7740 ca         1 A1L       0.200900
     15 C34         12.9450     4.0760    -7.6690 ca         1 A1L      -0.323800
     16 C35         12.9070     4.2540    -9.1060 cc         1 A1L       0.310800
     17 C02         14.3380     2.2090    -9.3330 c          1 A1L       0.594200
     18 C05         14.3330    -0.2800    -6.9110 ca         1 A1L      -0.015300
     19 C06         14.9660    -1.3850    -6.2670 ca         1 A1L      -0.195300
     20 C07         16.4740    -1.3760    -5.9370 c3         1 A1L       0.352300
     21 C15         13.6610     3.0120    -7.1010 ca         1 A1L       0.322900
     22 C23         14.2360     1.8360    -0.5290 ca         1 A1L      -0.187000
     23 C31         13.5590     1.1590    -3.1700 ca         1 A1L      -0.061000
     24 C37         13.5760     3.3450    -9.8620 cd         1 A1L      -0.458200
     25 F08         17.2330    -1.2430    -7.0470 f          1 A1L      -0.114333
     26 F09         16.8010    -0.3620    -5.1040 f          1 A1L      -0.114333
     27 F10         16.8900    -2.5110    -5.3280 f          1 A1L      -0.114333
     28 N03         14.3640     2.0900    -7.9350 n          1 A1L      -0.374300
     29 N16         13.6890     2.8180    -5.7690 nb         1 A1L      -0.303000
     30 N27         14.1320    -2.2980    -1.6690 n3         1 A1L      -0.708600
     31 N32         12.3170     4.7500    -5.4430 nb         1 A1L      -0.263000
     32 N36         12.2260     5.2770    -9.6630 nv         1 A1L      -0.959000
     33 O01         14.9090     1.4290   -10.0790 o          1 A1L      -0.543000
     34 O21         13.6820     4.1680    -1.0230 os         1 A1L      -0.346100
     35 H111        14.6370    -3.3790    -5.4370 ha         1 A1L       0.127000
     36 H121        12.2280    -3.4320    -5.9160 ha         1 A1L       0.119000
     37 H131        11.1230    -1.5020    -7.0300 ha         1 A1L       0.117000
     38 H141        12.4310     0.4750    -7.6710 ha         1 A1L       0.122000
     39 H222        13.8300     5.6860     0.4050 h1         1 A1L       0.042700
     40 H223        13.3560     4.1000     1.0480 h1         1 A1L       0.042700
     41 H221        15.0450     4.3990     0.5540 h1         1 A1L       0.042700
     42 H252        13.9710    -0.7630     0.7450 hc         1 A1L       0.056200
     43 H251        15.6410    -0.2300     0.6160 hc         1 A1L       0.056200
     44 H261        16.1360    -1.8190    -1.1370 h1         1 A1L       0.037200
     45 H262        15.2420    -2.6980     0.1130 h1         1 A1L       0.037200
     46 H291        14.9770    -1.3740    -3.3850 h1         1 A1L       0.043200
     47 H292        13.2160    -1.4990    -3.4130 h1         1 A1L       0.043200
     48 H331        11.7110     5.8030    -7.1150 h4         1 A1L       0.016100
     49 H042        15.6640     1.3590    -6.4450 h1         1 A1L       0.097700
     50 H041        15.9250     0.6560    -8.0200 h1         1 A1L       0.097700
     51 H231        14.4940     2.0720     0.4990 ha         1 A1L       0.119000
     52 H282        13.5230    -3.9280    -2.8960 h1         1 A1L       0.030700
     53 H283        15.2850    -3.7610    -2.7080 h1         1 A1L       0.030700
     54 H281        14.3000    -4.4000    -1.3690 h1         1 A1L       0.030700
     55 H311        13.2750     0.8730    -4.1770 ha         1 A1L       0.126000
     56 H371        13.5850     3.4110   -10.9420 ha         1 A1L       0.207000
     57 H181        12.7720     4.3760    -3.1430 hn         1 A1L       0.527000
     58 H361        12.0780     5.2860   -10.6690 hn         1 A1L       0.480000
     59 H362        11.5860     5.8270    -9.0990 hn         1 A1L       0.480000
     60 C04         15.1380     0.9690    -7.3240 c3         1 A1L       0.124300
     61 N18         13.0340     3.5230    -3.6370 nu         1 A1L      -0.914900
     62 C28         14.3220    -3.6680    -2.1880 c3         1 A1L       0.152100
@<TRIPOS>BOND
     1     1     2 ar  
     2     1    19 ar  
     3     1    35 1   
     4     2     3 ar  
     5     2    36 1   
     6     3     4 ar  
     7     3    37 1   
     8     4    18 ar  
     9     4    38 1   
    10     5    29 ar  
    11     5    31 ar  
    12     5    61 1   
    13     6     7 ar  
    14     6    23 ar  
    15     6    61 1   
    16     7    22 ar  
    17     7    34 1   
    18     8    34 1   
    19     8    39 1   
    20     8    40 1   
    21     8    41 1   
    22     9    10 1   
    23     9    13 ar  
    24     9    22 ar  
    25    10    11 1   
    26    10    42 1   
    27    10    43 1   
    28    11    30 1   
    29    11    44 1   
    30    11    45 1   
    31    12    13 1   
    32    12    30 1   
    33    12    46 1   
    34    12    47 1   
    35    13    23 ar  
    36    14    15 ar  
    37    14    31 ar  
    38    14    48 1   
    39    15    16 1   
    40    15    21 ar  
    41    16    24 2   
    42    16    32 1   
    43    17    24 1   
    44    17    28 1   
    45    17    33 2   
    46    18    19 ar  
    47    18    60 1   
    48    19    20 1   
    49    20    25 1   
    50    20    26 1   
    51    20    27 1   
    52    21    28 1   
    53    21    29 ar  
    54    22    51 1   
    55    23    55 1   
    56    24    56 1   
    57    28    60 1   
    58    30    62 1   
    59    32    58 1   
    60    32    59 1   
    61    49    60 1   
    62    50    60 1   
    63    52    62 1   
    64    53    62 1   
    65    54    62 1   
    66    57    61 1   
@<TRIPOS>SUBSTRUCTURE
     1 A1L         1 TEMP              0 ****  ****    0 ROOT
