@<TRIPOS>MOLECULE
A1L
   79    83     1     0     0
SMALL
No Charge or Current Charge


@<TRIPOS>ATOM
      1 C1         192.0320    31.6930    80.0290 ca         1 A1L      -0.176500
      2 N1         196.0380    32.6230    82.5960 n          1 A1L      -0.397300
      3 O1         189.9680    31.7560    78.8470 os         1 A1L      -0.338600
      4 C2         193.4280    31.4970    80.0920 ca         1 A1L       0.026000
      5 N2         194.1390    31.7620    81.3230 n          1 A1L      -0.251400
      6 O2         194.1940    30.9710    76.5250 os         1 A1L      -0.338600
      7 C3         194.1220    31.3110    78.8800 ca         1 A1L      -0.176500
      8 N3         194.9780    30.3330    85.9360 nb         1 A1L      -0.261000
      9 C4         193.4410    31.1970    77.6590 ca         1 A1L       0.183600
     10 N4         196.4890    31.8060    84.7980 nb         1 A1L      -0.276000
     11 O4         195.6350    33.2130    88.6950 o          1 A1L      -0.576100
     12 C5         192.0390    31.3220    77.6240 ca         1 A1L      -0.284000
     13 O5         203.9330    37.6550    86.2210 o          1 A1L      -0.598100
     14 C6         191.3360    31.5840    78.8160 ca         1 A1L       0.183600
     15 N6         197.4630    32.1490    89.6080 ns         1 A1L      -0.171000
     16 C7         193.6030    30.8420    75.2200 c3         1 A1L       0.149900
     17 N7         202.2030    37.0070    84.8960 ns         1 A1L      -0.163000
     18 C8         189.1530    31.6720    77.6640 c3         1 A1L       0.149900
     19 C9         194.4700    31.1290    83.7300 ca         1 A1L      -0.311300
     20 C10        195.6640    31.8460    83.7350 ca         1 A1L       0.311900
     21 C11        195.3040    32.5750    81.3890 c          1 A1L       0.631000
     22 C12        193.5220    31.2240    82.5560 c6         1 A1L       0.194300
     23 C13        194.1550    30.3720    84.8710 ca         1 A1L       0.181900
     24 C14        196.1080    31.0490    85.8380 ca         1 A1L       0.426900
     25 C15        200.7010    32.7050    87.8720 ca         1 A1L      -0.111000
     26 C16        200.4390    32.2130    86.5850 ca         1 A1L      -0.104000
     27 C17        199.1760    31.6740    86.2860 ca         1 A1L      -0.090000
     28 C18        198.1540    31.6380    87.2580 ca         1 A1L       0.306000
     29 C19        198.4240    32.1460    88.5590 ca         1 A1L      -0.076000
     30 C20        199.7010    32.6610    88.8550 ca         1 A1L      -0.120000
     31 C21        196.1600    32.6220    89.6300 c          1 A1L       0.601300
     32 C22        195.4510    32.3890    90.9260 ce         1 A1L      -0.305200
     33 C23        197.2900    33.4350    82.6540 c3         1 A1L       0.112000
     34 C24        197.1040    34.7770    83.3900 c3         1 A1L      -0.051100
     35 C25        198.4380    35.3840    83.7980 ca         1 A1L      -0.086300
     36 C26        198.9710    35.1120    85.0720 ca         1 A1L      -0.084500
     37 C27        200.2140    35.6460    85.4500 ca         1 A1L      -0.140000
     38 C28        200.9320    36.4740    84.5640 ca         1 A1L      -0.035000
     39 C29        200.4080    36.7250    83.2830 ca         1 A1L      -0.140000
     40 C30        199.1650    36.1880    82.9020 ca         1 A1L      -0.084500
     41 C31        202.7300    37.4590    86.0980 c          1 A1L       0.608300
     42 C32        201.7840    37.6560    87.2440 ce         1 A1L      -0.289200
     43 C33        194.2150    32.8640    91.2200 c2         1 A1L      -0.223000
     44 C34        202.1540    37.6510    88.5500 c2         1 A1L      -0.246000
     45 H1         191.4660    31.9330    80.9240 ha         1 A1L       0.139000
     46 H2         195.2040    31.2200    78.8800 ha         1 A1L       0.139000
     47 H3         191.5070    31.2360    76.6840 ha         1 A1L       0.121000
     48 H4         196.4260    30.6930    87.7790 hn         1 A1L       0.514000
     49 H5         197.7890    31.7550    90.4810 hn         1 A1L       0.155000
     50 H6         194.3800    30.6670    74.4660 h1         1 A1L       0.041200
     51 H7         192.9040    29.9970    75.1900 h1         1 A1L       0.041200
     52 H8         193.0630    31.7570    74.9450 h1         1 A1L       0.041200
     53 H9         202.8690    36.9940    84.1340 hn         1 A1L       0.157000
     54 H10        188.0990    31.8400    77.9160 h1         1 A1L       0.041200
     55 H11        189.4520    32.4320    76.9300 h1         1 A1L       0.041200
     56 H12        189.2390    30.6810    77.2000 h1         1 A1L       0.041200
     57 H13        192.6830    31.8720    82.8430 h1         1 A1L       0.051700
     58 H14        193.1120    30.2260    82.3440 h1         1 A1L       0.051700
     59 H15        193.2300    29.8010    84.9420 h4         1 A1L       0.021100
     60 H16        201.6810    33.1150    88.1080 ha         1 A1L       0.119000
     61 H17        201.2150    32.2360    85.8240 ha         1 A1L       0.122000
     62 H18        199.0030    31.2610    85.2980 ha         1 A1L       0.133000
     63 H19        199.9160    33.0450    89.8510 ha         1 A1L       0.116000
     64 H20        196.0040    31.8140    91.6690 ha         1 A1L       0.177000
     65 H21        198.0710    32.8550    83.1630 h1         1 A1L       0.074700
     66 H22        197.6830    33.6310    81.6480 h1         1 A1L       0.074700
     67 H23        196.5420    35.4650    82.7460 hc         1 A1L       0.064200
     68 H24        196.4840    34.6210    84.2810 hc         1 A1L       0.064200
     69 H25        198.4280    34.4760    85.7670 ha         1 A1L       0.125500
     70 H26        200.6190    35.3940    86.4270 ha         1 A1L       0.118500
     71 H27        200.9620    37.3420    82.5790 ha         1 A1L       0.118500
     72 H28        198.7710    36.3940    81.9090 ha         1 A1L       0.125500
     73 H29        200.7310    37.7420    86.9810 ha         1 A1L       0.193000
     74 H31        193.7430    32.6780    92.1860 ha         1 A1L       0.178000
     75 H32        193.6360    33.4540    90.5060 ha         1 A1L       0.178000
     76 H33        201.4240    37.7660    89.3530 ha         1 A1L       0.173000
     77 H34        203.1960    37.5340    88.8550 ha         1 A1L       0.173000
     78 O3         195.6700    33.2290    80.4200 o          1 A1L      -0.552000
     79 N5         196.9200    31.0390    86.9600 nu         1 A1L      -0.932900
@<TRIPOS>BOND
     1     1     4 ar  
     2     1    14 ar  
     3     1    45 1   
     4     2    20 1   
     5     2    21 1   
     6     2    33 1   
     7     3    14 1   
     8     3    18 1   
     9     4     5 1   
    10     4     7 ar  
    11     5    21 1   
    12     5    22 1   
    13     6     9 1   
    14     6    16 1   
    15     7     9 ar  
    16     7    46 1   
    17     8    23 ar  
    18     8    24 ar  
    19     9    12 ar  
    20    10    20 ar  
    21    10    24 ar  
    22    11    31 2   
    23    12    14 ar  
    24    12    47 1   
    25    13    41 2   
    26    15    29 1   
    27    15    31 1   
    28    15    49 1   
    29    16    50 1   
    30    16    51 1   
    31    16    52 1   
    32    17    38 1   
    33    17    41 1   
    34    17    53 1   
    35    18    54 1   
    36    18    55 1   
    37    18    56 1   
    38    19    20 ar  
    39    19    22 1   
    40    19    23 ar  
    41    21    78 2   
    42    22    57 1   
    43    22    58 1   
    44    23    59 1   
    45    24    79 1   
    46    25    26 ar  
    47    25    30 ar  
    48    25    60 1   
    49    26    27 ar  
    50    26    61 1   
    51    27    28 ar  
    52    27    62 1   
    53    28    29 ar  
    54    28    79 1   
    55    29    30 ar  
    56    30    63 1   
    57    31    32 1   
    58    32    43 2   
    59    32    64 1   
    60    33    34 1   
    61    33    65 1   
    62    33    66 1   
    63    34    35 1   
    64    34    67 1   
    65    34    68 1   
    66    35    36 ar  
    67    35    40 ar  
    68    36    37 ar  
    69    36    69 1   
    70    37    38 ar  
    71    37    70 1   
    72    38    39 ar  
    73    39    40 ar  
    74    39    71 1   
    75    40    72 1   
    76    41    42 1   
    77    42    44 2   
    78    42    73 1   
    79    43    74 1   
    80    43    75 1   
    81    44    76 1   
    82    44    77 1   
    83    48    79 1   
@<TRIPOS>SUBSTRUCTURE
     1 A1L         1 TEMP              0 ****  ****    0 ROOT
