@<TRIPOS>MOLECULE
A1L
   79    83     1     0     0
SMALL
abcg2


@<TRIPOS>ATOM
      1 C1         192.5260    32.4550    80.1090 ca         1 A1L      -0.176500
      2 N1         196.1090    32.4850    82.8080 n          1 A1L      -0.397300
      3 O1         190.7590    33.2080    78.8070 os         1 A1L      -0.338600
      4 C2         193.6300    31.6370    80.2820 ca         1 A1L       0.026000
      5 N2         194.3390    31.6630    81.5170 n          1 A1L      -0.251400
      6 O2         193.7760    29.8110    77.1950 os         1 A1L      -0.338600
      7 C3         194.0390    30.7520    79.3010 ca         1 A1L      -0.176500
      8 N3         195.3330    29.7950    85.7900 nb         1 A1L      -0.261000
      9 C4         193.3250    30.6900    78.1060 ca         1 A1L       0.183600
     10 N4         196.6990    31.4480    84.7840 nb         1 A1L      -0.276000
     11 O4         195.9890    33.0010    87.7250 o          1 A1L      -0.576100
     12 C5         192.2100    31.5030    77.9060 ca         1 A1L      -0.284000
     13 O5         203.3670    38.3040    86.1770 o          1 A1L      -0.598100
     14 C6         191.8150    32.3840    78.9130 ca         1 A1L       0.183600
     15 N6         197.5140    32.0300    89.0910 ns         1 A1L      -0.171000
     16 C7         193.0720    29.6620    75.9780 c3         1 A1L       0.149900
     17 N7         201.6620    37.5060    84.9540 ns         1 A1L      -0.163000
     18 C8         190.0130    33.2180    77.6060 c3         1 A1L       0.149900
     19 C9         194.6480    30.8300    83.7520 ca         1 A1L      -0.311300
     20 C10        195.8260    31.5740    83.8020 ca         1 A1L       0.311900
     21 C11        195.3990    32.5120    81.6120 c          1 A1L       0.631000
     22 C12        193.6600    31.0860    82.6680 c6         1 A1L       0.194300
     23 C13        194.4730    29.9390    84.7890 ca         1 A1L       0.181900
     24 C14        196.4110    30.5770    85.7430 ca         1 A1L       0.426900
     25 C15        200.7800    32.6480    87.4840 ca         1 A1L      -0.111000
     26 C16        200.6340    31.9370    86.3010 ca         1 A1L      -0.104000
     27 C17        199.4710    31.2270    86.0550 ca         1 A1L      -0.090000
     28 C18        198.4270    31.2340    86.9760 ca         1 A1L       0.306000
     29 C19        198.5600    31.9870    88.1470 ca         1 A1L      -0.076000
     30 C20        199.7420    32.6750    88.4000 ca         1 A1L      -0.120000
     31 C21        196.2930    32.5650    88.8220 c          1 A1L       0.601300
     32 C22        195.3640    32.5550    89.9810 ce         1 A1L      -0.305200
     33 C23        197.2360    33.3910    82.9850 c3         1 A1L       0.112000
     34 C24        196.8810    34.5720    83.8910 c3         1 A1L      -0.051100
     35 C25        198.1080    35.3780    84.1990 ca         1 A1L      -0.086300
     36 C26        198.9710    34.9750    85.2150 ca         1 A1L      -0.084500
     37 C27        200.1500    35.6570    85.4680 ca         1 A1L      -0.140000
     38 C28        200.4700    36.7940    84.7310 ca         1 A1L      -0.035000
     39 C29        199.6140    37.2060    83.7130 ca         1 A1L      -0.140000
     40 C30        198.4550    36.4950    83.4460 ca         1 A1L      -0.084500
     41 C31        202.2320    37.8550    86.1380 c          1 A1L       0.608300
     42 C32        201.3960    37.7150    87.3590 ce         1 A1L      -0.289200
     43 C33        194.1190    33.0030    89.8750 c2         1 A1L      -0.223000
     44 C34        201.9420    37.7190    88.5700 c2         1 A1L      -0.246000
     45 H1         192.2190    33.1440    80.8860 ha         1 A1L       0.139000
     46 H2         194.8990    30.1120    79.4590 ha         1 A1L       0.139000
     47 H3         191.6550    31.4540    76.9800 ha         1 A1L       0.121000
     48 H4         196.9300    29.9380    87.5710 hn         1 A1L       0.514000
     49 H5         197.7470    31.8230    90.0500 hn         1 A1L       0.155000
     50 H6         193.5990    28.8980    75.4110 h1         1 A1L       0.041200
     51 H7         192.0420    29.3330    76.1390 h1         1 A1L       0.041200
     52 H8         193.0610    30.5860    75.3940 h1         1 A1L       0.041200
     53 H9         202.1960    37.7600    84.1340 hn         1 A1L       0.157000
     54 H10        189.2250    33.9550    77.7400 h1         1 A1L       0.041200
     55 H11        190.6230    33.5090    76.7470 h1         1 A1L       0.041200
     56 H12        189.5530    32.2470    77.4000 h1         1 A1L       0.041200
     57 H13        192.8610    31.7530    83.0120 h1         1 A1L       0.051700
     58 H14        193.1840    30.1560    82.3520 h1         1 A1L       0.051700
     59 H15        193.5860    29.3140    84.8200 h4         1 A1L       0.021100
     60 H16        201.6940    33.1920    87.6880 ha         1 A1L       0.119000
     61 H17        201.4350    31.9200    85.5740 ha         1 A1L       0.122000
     62 H18        199.3740    30.6450    85.1480 ha         1 A1L       0.133000
     63 H19        199.8340    33.2430    89.3170 ha         1 A1L       0.116000
     64 H20        195.7280    32.1640    90.9250 ha         1 A1L       0.177000
     65 H21        198.0670    32.8310    83.4090 h1         1 A1L       0.074700
     66 H22        197.5480    33.7480    82.0080 h1         1 A1L       0.074700
     67 H23        196.1250    35.1900    83.4020 hc         1 A1L       0.064200
     68 H24        196.4440    34.2010    84.8200 hc         1 A1L       0.064200
     69 H25        198.7280    34.0990    85.8050 ha         1 A1L       0.125500
     70 H26        200.8210    35.2920    86.2350 ha         1 A1L       0.118500
     71 H27        199.8580    38.0860    83.1310 ha         1 A1L       0.118500
     72 H28        197.8040    36.8260    82.6450 ha         1 A1L       0.125500
     73 H29        200.3220    37.6330    87.2490 ha         1 A1L       0.193000
     74 H31        193.4470    32.9900    90.7220 ha         1 A1L       0.178000
     75 H32        193.7300    33.3950    88.9440 ha         1 A1L       0.178000
     76 H33        201.3290    37.6440    89.4580 ha         1 A1L       0.173000
     77 H34        203.0120    37.7890    88.7180 ha         1 A1L       0.173000
     78 O3         195.7430    33.2300    80.6940 o          1 A1L      -0.552000
     79 N5         197.2850    30.4480    86.7760 nu         1 A1L      -0.932900
@<TRIPOS>BOND
     1     1     4 ar  
     2     1    14 ar  
     3     1    45 1   
     4     2    20 1   
     5     2    21 1   
     6     2    33 1   
     7     3    14 1   
     8     3    18 1   
     9     4     5 1   
    10     4     7 ar  
    11     5    21 1   
    12     5    22 1   
    13     6     9 1   
    14     6    16 1   
    15     7     9 ar  
    16     7    46 1   
    17     8    23 ar  
    18     8    24 ar  
    19     9    12 ar  
    20    10    20 ar  
    21    10    24 ar  
    22    11    31 2   
    23    12    14 ar  
    24    12    47 1   
    25    13    41 2   
    26    15    29 1   
    27    15    31 1   
    28    15    49 1   
    29    16    50 1   
    30    16    51 1   
    31    16    52 1   
    32    17    38 1   
    33    17    41 1   
    34    17    53 1   
    35    18    54 1   
    36    18    55 1   
    37    18    56 1   
    38    19    20 ar  
    39    19    22 1   
    40    19    23 ar  
    41    21    78 2   
    42    22    57 1   
    43    22    58 1   
    44    23    59 1   
    45    24    79 1   
    46    25    26 ar  
    47    25    30 ar  
    48    25    60 1   
    49    26    27 ar  
    50    26    61 1   
    51    27    28 ar  
    52    27    62 1   
    53    28    29 ar  
    54    28    79 1   
    55    29    30 ar  
    56    30    63 1   
    57    31    32 1   
    58    32    43 2   
    59    32    64 1   
    60    33    34 1   
    61    33    65 1   
    62    33    66 1   
    63    34    35 1   
    64    34    67 1   
    65    34    68 1   
    66    35    36 ar  
    67    35    40 ar  
    68    36    37 ar  
    69    36    69 1   
    70    37    38 ar  
    71    37    70 1   
    72    38    39 ar  
    73    39    40 ar  
    74    39    71 1   
    75    40    72 1   
    76    41    42 1   
    77    42    44 2   
    78    42    73 1   
    79    43    74 1   
    80    43    75 1   
    81    44    76 1   
    82    44    77 1   
    83    48    79 1   
@<TRIPOS>SUBSTRUCTURE
     1 A1L         1 TEMP              0 ****  ****    0 ROOT
