@<TRIPOS>MOLECULE
A1L
   62    64     1     0     0
SMALL
abcg2


@<TRIPOS>ATOM
      1 C1          15.4890    65.4030    25.7980 c3         1 A1L      -0.208700
      2 C2          16.0440    64.3710    26.8090 c3         1 A1L       0.172000
      3 C3          15.3230    64.7490    24.4040 c          1 A1L       0.719000
      4 C6          15.9310    64.8940    28.2240 ca         1 A1L      -0.064300
      5 C9          14.5070    60.9420    27.2200 c3         1 A1L       0.157600
      6 C10         17.0410    65.3750    28.9050 ca         1 A1L      -0.094500
      7 C11         14.6970    64.9290    28.8690 ca         1 A1L      -0.094500
      8 C13         13.2390    61.3840    27.8910 ca         1 A1L      -0.120300
      9 C14         16.9230    65.8890    30.1910 ca         1 A1L      -0.119000
     10 C15         14.5820    65.4340    30.1540 ca         1 A1L      -0.119000
     11 C16         15.6910    65.9300    30.8370 ca         1 A1L      -0.098300
     12 C17         16.3600    66.6480    25.7700 c3         1 A1L      -0.060100
     13 C18         15.5490    66.5130    32.2130 c3         1 A1L      -0.036800
     14 C19         12.1810    61.8670    27.1340 ca         1 A1L      -0.085500
     15 C20         11.0620    62.4060    27.7520 ca         1 A1L      -0.108000
     16 C21         13.1460    61.4100    29.2800 ca         1 A1L      -0.085500
     17 C22         12.0230    61.9420    29.8920 ca         1 A1L      -0.108000
     18 C23         10.9730    62.4640    29.1370 ca         1 A1L      -0.076300
     19 C24          9.7920    63.1050    29.8220 c3         1 A1L      -0.069400
     20 C25         10.2010    64.3080    30.6310 ca         1 A1L       0.324300
     21 C27         10.5170    65.2530    32.6970 ca         1 A1L       0.287900
     22 C28         10.9700    66.4380    32.1510 ca         1 A1L      -0.128000
     23 C29         11.0420    66.5560    30.7690 ca         1 A1L      -0.173000
     24 C30         10.6610    65.4730    29.9880 ca         1 A1L       0.117100
     25 C33         11.3110    66.5070    27.9400 c3         1 A1L       0.158600
     26 C34         11.4220    66.1050    26.4890 c3         1 A1L      -0.100100
     27 F31         14.9910    59.7870    27.7980 f          1 A1L      -0.250000
     28 N26         10.1380    64.2190    31.9490 nb         1 A1L      -0.653000
     29 N4          15.3170    63.1260    26.6590 ns         1 A1L      -0.492900
     30 O12         14.2780    64.0660    24.2510 o          1 A1L      -0.727000
     31 O32         10.7000    65.4360    28.6500 os         1 A1L      -0.334100
     32 O7          16.2240    64.9150    23.5680 o          1 A1L      -0.727000
     33 O8          16.4670    61.9280    28.2020 o          1 A1L      -0.611100
     34 H35         14.4870    65.6800    26.1460 hc         1 A1L       0.034700
     35 H36         17.1030    64.2060    26.5790 h1         1 A1L       0.063700
     36 H38         14.3310    60.7490    26.1570 h1         1 A1L       0.075700
     37 H39         18.0140    65.3440    28.4290 ha         1 A1L       0.117000
     38 H40         13.8130    64.5430    28.3700 ha         1 A1L       0.117000
     39 H41         17.8070    66.2540    30.7010 ha         1 A1L       0.097500
     40 H42         13.6110    65.4410    30.6360 ha         1 A1L       0.097500
     41 H45         16.3860    67.1430    26.7410 hc         1 A1L       0.021033
     42 H44         17.3870    66.4100    25.4900 hc         1 A1L       0.021033
     43 H43         15.9790    67.3690    25.0470 hc         1 A1L       0.021033
     44 H46         15.2440    67.5610    32.1640 hc         1 A1L       0.030033
     45 H48         14.7910    65.9870    32.7940 hc         1 A1L       0.030033
     46 H47         16.4870    66.4740    32.7660 hc         1 A1L       0.030033
     47 H49         12.2370    61.8440    26.0510 ha         1 A1L       0.129500
     48 H50         10.2550    62.7960    27.1450 ha         1 A1L       0.112500
     49 H51         13.9550    61.0330    29.8930 ha         1 A1L       0.129500
     50 H52         11.9680    61.9670    30.9740 ha         1 A1L       0.112500
     51 H54          9.3240    62.3920    30.5050 hc         1 A1L       0.060700
     52 H53          9.0400    63.3770    29.0780 hc         1 A1L       0.060700
     53 H55         10.4520    65.1250    33.7710 h4         1 A1L       0.013100
     54 H56         11.2660    67.2600    32.7880 ha         1 A1L       0.115000
     55 H57         11.3950    67.4780    30.3270 ha         1 A1L       0.124000
     56 H58         12.3040    66.7130    28.3520 h1         1 A1L       0.033700
     57 H59         10.7120    67.4180    28.0450 h1         1 A1L       0.033700
     58 H60         11.8700    66.9220    25.9230 hc         1 A1L       0.058367
     59 H61         12.0550    65.2270    26.3650 hc         1 A1L       0.058367
     60 H62         10.4440    65.8940    26.0550 hc         1 A1L       0.058367
     61 H37         14.5980    63.1180    25.9390 hn         1 A1L       0.373500
     62 C5          15.5570    62.0420    27.4010 c          1 A1L       0.578100
@<TRIPOS>BOND
     1     1     2 1   
     2     1     3 1   
     3     1    12 1   
     4     1    34 1   
     5     2     4 1   
     6     2    29 1   
     7     2    35 1   
     8     3    30 1   
     9     3    32 1   
    10     4     6 ar  
    11     4     7 ar  
    12     5     8 1   
    13     5    27 1   
    14     5    36 1   
    15     5    62 1   
    16     6     9 ar  
    17     6    37 1   
    18     7    10 ar  
    19     7    38 1   
    20     8    14 ar  
    21     8    16 ar  
    22     9    11 ar  
    23     9    39 1   
    24    10    11 ar  
    25    10    40 1   
    26    11    13 1   
    27    12    41 1   
    28    12    42 1   
    29    12    43 1   
    30    13    44 1   
    31    13    45 1   
    32    13    46 1   
    33    14    15 ar  
    34    14    47 1   
    35    15    18 ar  
    36    15    48 1   
    37    16    17 ar  
    38    16    49 1   
    39    17    18 ar  
    40    17    50 1   
    41    18    19 1   
    42    19    20 1   
    43    19    51 1   
    44    19    52 1   
    45    20    24 ar  
    46    20    28 ar  
    47    21    22 ar  
    48    21    28 ar  
    49    21    53 1   
    50    22    23 ar  
    51    22    54 1   
    52    23    24 ar  
    53    23    55 1   
    54    24    31 1   
    55    25    26 1   
    56    25    31 1   
    57    25    56 1   
    58    25    57 1   
    59    26    58 1   
    60    26    59 1   
    61    26    60 1   
    62    29    61 1   
    63    29    62 1   
    64    33    62 2   
@<TRIPOS>SUBSTRUCTURE
     1 A1L         1 TEMP              0 ****  ****    0 ROOT
