@<TRIPOS>MOLECULE
A1L
   53    56     1     0     0
SMALL
abcg2


@<TRIPOS>ATOM
      1 C11         93.1550    92.9770   131.3620 c3         1 A1L       0.161300
      2 C12         94.1970    93.2190   129.1470 c3         1 A1L       0.161300
      3 C13         94.4770    92.7990   132.1060 c3         1 A1L       0.198300
      4 C14         94.0830    94.7380   128.9920 c3         1 A1L       0.198300
      5 C15         91.8750    92.5940   129.3740 c3         1 A1L       0.158100
      6 C16         95.8110    94.6870   133.1040 ca         1 A1L       0.383500
      7 C19         96.4770    96.9240   127.0500 ca         1 A1L      -0.130500
      8 C21         96.5980    98.3050   126.7520 ca         1 A1L       0.307500
      9 C22         97.0930    95.2230   133.0660 ca         1 A1L      -0.282500
     10 C23         94.4810    97.4970   128.2700 ca         1 A1L      -0.282500
     11 C24         93.6450    94.7120   134.3980 ca         1 A1L      -0.078500
     12 C25         97.4530    96.0370   126.5510 ca         1 A1L      -0.078500
     13 C26         97.5890    95.9360   134.1540 ca         1 A1L       0.399900
     14 C27         94.7160    98.8220   127.9040 ca         1 A1L       0.399900
     15 C28         94.9400    95.9690   136.5100 ca         1 A1L      -0.087500
     16 C31         98.5040    96.4780   125.7930 ca         1 A1L      -0.121000
     17 C17         95.3590    96.5030   127.8530 ca         1 A1L       0.383500
     18 C18         95.0230    95.0000   134.2620 ca         1 A1L      -0.130500
     19 C20         95.6630    95.7000   135.3230 ca         1 A1L       0.307500
     20 C29         97.6890    98.7460   125.9690 ca         1 A1L      -0.087500
     21 C30         92.9530    95.0040   135.5410 ca         1 A1L      -0.121000
     22 C32         93.6280    95.6130   136.6120 ca         1 A1L       0.134500
     23 C33         98.6100    97.8490   125.5090 ca         1 A1L       0.134500
     24 N06         93.1960    92.5790   129.9670 n3         1 A1L      -0.732600
     25 N07         95.3770    93.9410   132.0530 nu         1 A1L      -0.967200
     26 N08         95.1780    95.2130   128.1800 nu         1 A1L      -0.967200
     27 N09         96.9340    96.1540   135.2700 nb         1 A1L      -0.696500
     28 N10         95.7220    99.2460   127.1770 nb         1 A1L      -0.696500
     29 CL01        92.7540    95.9340   138.0710 cl         1 A1L      -0.198000
     30 CL02        99.9440    98.3980   124.5500 cl         1 A1L      -0.198000
     31 H1          92.7990    94.0120   131.4970 h1         1 A1L       0.047700
     32 H2          92.4130    92.3370   131.8480 h1         1 A1L       0.047700
     33 H3          94.1500    92.7650   128.1530 h1         1 A1L       0.047700
     34 H4          95.1920    92.9740   129.5310 h1         1 A1L       0.047700
     35 H5          94.2760    92.5520   133.1470 h1         1 A1L       0.056200
     36 H6          95.0000    91.9310   131.6960 h1         1 A1L       0.056200
     37 H7          94.1060    95.2240   129.9730 h1         1 A1L       0.056200
     38 H8          93.1270    94.9990   128.5270 h1         1 A1L       0.056200
     39 H9          91.2160    91.9220   129.9260 h1         1 A1L       0.035700
     40 H10         91.3960    93.5840   129.3620 h1         1 A1L       0.035700
     41 H11         91.9270    92.2360   128.3450 h1         1 A1L       0.035700
     42 H12         97.7320    95.0500   132.2090 ha         1 A1L       0.121500
     43 H14         93.0890    94.2810   133.5800 ha         1 A1L       0.107500
     44 H15         97.3980    94.9740   126.7520 ha         1 A1L       0.107500
     45 H16         98.6030    96.3200   134.1040 h4         1 A1L       0.016600
     46 H17         94.0150    99.5800   128.2410 h4         1 A1L       0.016600
     47 H18         95.4540    96.4740   137.3170 ha         1 A1L       0.148000
     48 H19         99.2420    95.7810   125.4200 ha         1 A1L       0.129000
     49 H20         97.7700    99.8020   125.7500 ha         1 A1L       0.148000
     50 H21         91.8980    94.7790   135.6130 ha         1 A1L       0.129000
     51 H23         96.0610    93.8800   131.3150 hn         1 A1L       0.481000
     52 H24         95.8400    94.5270   127.8600 hn         1 A1L       0.481000
     53 H13         93.6160    97.2670   128.8750 ha         1 A1L       0.121500
@<TRIPOS>BOND
     1     1     3 1   
     2     1    24 1   
     3     1    31 1   
     4     1    32 1   
     5     2     4 1   
     6     2    24 1   
     7     2    33 1   
     8     2    34 1   
     9     3    25 1   
    10     3    35 1   
    11     3    36 1   
    12     4    26 1   
    13     4    37 1   
    14     4    38 1   
    15     5    24 1   
    16     5    39 1   
    17     5    40 1   
    18     5    41 1   
    19     6     9 ar  
    20     6    18 ar  
    21     6    25 1   
    22     7     8 ar  
    23     7    12 ar  
    24     7    17 ar  
    25     8    20 ar  
    26     8    28 ar  
    27     9    13 ar  
    28     9    42 1   
    29    10    14 ar  
    30    10    17 ar  
    31    10    53 1   
    32    11    18 ar  
    33    11    21 ar  
    34    11    43 1   
    35    12    16 ar  
    36    12    44 1   
    37    13    27 ar  
    38    13    45 1   
    39    14    28 ar  
    40    14    46 1   
    41    15    19 ar  
    42    15    22 ar  
    43    15    47 1   
    44    16    23 ar  
    45    16    48 1   
    46    17    26 1   
    47    18    19 ar  
    48    19    27 ar  
    49    20    23 ar  
    50    20    49 1   
    51    21    22 ar  
    52    21    50 1   
    53    22    29 1   
    54    23    30 1   
    55    25    51 1   
    56    26    52 1   
@<TRIPOS>SUBSTRUCTURE
     1 A1L         1 TEMP              0 ****  ****    0 ROOT
