@<TRIPOS>MOLECULE
A1L
   57    58     1     0     0
SMALL
abcg2


@<TRIPOS>ATOM
      1 C2          15.4190    61.9430    27.0510 c          1 A1L       0.576100
      2 C3          17.1880    65.1370    26.3380 c3         1 A1L      -0.206700
      3 C4          17.0170    63.7900    27.0810 c3         1 A1L       0.162000
      4 C5          17.0210    64.9660    24.8050 c          1 A1L       0.722000
      5 C6          12.9950    61.9720    27.4970 ca         1 A1L      -0.104300
      6 N1          15.7940    63.1520    26.6340 ns         1 A1L      -0.498900
      7 C7          14.0470    61.5160    26.5280 c3         1 A1L       0.156600
      8 C8          17.0010    63.9970    28.5790 ca         1 A1L      -0.025300
      9 C11         15.9020    64.6090    29.1800 ca         1 A1L      -0.175000
     10 C12         18.0800    63.6290    29.3630 ca         1 A1L      -0.122000
     11 C14         18.0630    63.8730    30.7320 ca         1 A1L      -0.086000
     12 C15         15.8930    64.8470    30.5480 ca         1 A1L       0.129100
     13 C16         16.9830    64.4800    31.3530 ca         1 A1L      -0.119300
     14 C20         12.7890    66.5620    31.4550 c3         1 A1L       0.016100
     15 C21         16.9670    64.7430    32.8300 c3         1 A1L      -0.025800
     16 C22         12.4070    65.5760    32.4720 c1         1 A1L       0.321900
     17 C24         13.4440    67.7630    32.1470 c3         1 A1L      -0.083100
     18 C25         11.5320    67.0010    30.6960 c3         1 A1L      -0.083100
     19 C26         12.7130    61.2290    28.6390 ca         1 A1L      -0.074000
     20 C27         11.7610    61.6650    29.5460 ca         1 A1L      -0.116500
     21 C28         12.3180    63.1660    27.2820 ca         1 A1L      -0.074000
     22 C29         11.3680    63.6180    28.1840 ca         1 A1L      -0.116500
     23 C30         11.0940    62.8560    29.3080 ca         1 A1L       0.118000
     24 F32         14.0350    60.1390    26.4270 f          1 A1L      -0.250000
     25 N23         12.0980    64.8100    33.2720 n1         1 A1L      -0.475000
     26 O10         15.8760    64.6060    24.4220 o          1 A1L      -0.720000
     27 O13         17.9940    65.1980    24.0750 o          1 A1L      -0.720000
     28 O18         14.8650    65.4370    31.1980 os         1 A1L      -0.357100
     29 O9          16.0340    61.2370    27.8330 o          1 A1L      -0.615100
     30 CL31         9.8920    63.3960    30.4330 cl         1 A1L      -0.222000
     31 H34         16.3660    65.7840    26.6700 hc         1 A1L       0.037700
     32 H35         17.8770    63.1550    26.8330 h1         1 A1L       0.057700
     33 H33         15.3900    63.5850    25.7940 hn         1 A1L       0.386500
     34 H36         13.8560    61.9330    25.5350 h1         1 A1L       0.080700
     35 H37         15.0570    64.8890    28.5640 ha         1 A1L       0.123000
     36 H38         18.9400    63.1520    28.9090 ha         1 A1L       0.116000
     37 H39         18.9140    63.5800    31.3360 ha         1 A1L       0.100000
     38 H41         18.5460    66.0040    27.7920 hc         1 A1L       0.022700
     39 H40         19.3550    65.1530    26.4790 hc         1 A1L       0.022700
     40 H42         18.6390    66.7350    26.1980 hc         1 A1L       0.022700
     41 H44         14.0350    66.6300    29.7150 h1         1 A1L       0.048200
     42 H43         13.2440    65.0610    29.9610 h1         1 A1L       0.048200
     43 H45         16.8690    65.8070    33.0520 hc         1 A1L       0.033033
     44 H47         16.1350    64.2380    33.3250 hc         1 A1L       0.033033
     45 H46         17.8890    64.3930    33.2910 hc         1 A1L       0.033033
     46 H50         14.3230    67.4780    32.7210 hc         1 A1L       0.045867
     47 H48         13.7450    68.4860    31.3880 hc         1 A1L       0.045867
     48 H49         12.7380    68.2510    32.8180 hc         1 A1L       0.045867
     49 H53         10.8200    67.4730    31.3710 hc         1 A1L       0.045867
     50 H52         11.8080    67.7300    29.9330 hc         1 A1L       0.045867
     51 H51         11.0400    66.1600    30.2100 hc         1 A1L       0.045867
     52 H54         13.2280    60.2980    28.8360 ha         1 A1L       0.135500
     53 H55         11.5400    61.0790    30.4280 ha         1 A1L       0.124000
     54 H56         12.5240    63.7560    26.3960 ha         1 A1L       0.135500
     55 H57         10.8430    64.5470    28.0040 ha         1 A1L       0.124000
     56 C17         18.5050    65.7910    26.7240 c3         1 A1L      -0.060100
     57 C19         13.7490    65.8900    30.4720 c3         1 A1L       0.172600
@<TRIPOS>BOND
     1     1     6 1   
     2     1     7 1   
     3     1    29 2   
     4     2     3 1   
     5     2     4 1   
     6     2    31 1   
     7     2    56 1   
     8     3     6 1   
     9     3     8 1   
    10     3    32 1   
    11     4    26 1   
    12     4    27 1   
    13     5     7 1   
    14     5    19 ar  
    15     5    21 ar  
    16     6    33 1   
    17     7    24 1   
    18     7    34 1   
    19     8     9 ar  
    20     8    10 ar  
    21     9    12 ar  
    22     9    35 1   
    23    10    11 ar  
    24    10    36 1   
    25    11    13 ar  
    26    11    37 1   
    27    12    13 ar  
    28    12    28 1   
    29    13    15 1   
    30    14    16 1   
    31    14    17 1   
    32    14    18 1   
    33    14    57 1   
    34    15    43 1   
    35    15    44 1   
    36    15    45 1   
    37    16    25 3   
    38    17    46 1   
    39    17    47 1   
    40    17    48 1   
    41    18    49 1   
    42    18    50 1   
    43    18    51 1   
    44    19    20 ar  
    45    19    52 1   
    46    20    23 ar  
    47    20    53 1   
    48    21    22 ar  
    49    21    54 1   
    50    22    23 ar  
    51    22    55 1   
    52    23    30 1   
    53    28    57 1   
    54    38    56 1   
    55    39    56 1   
    56    40    56 1   
    57    41    57 1   
    58    42    57 1   
@<TRIPOS>SUBSTRUCTURE
     1 A1L         1 TEMP              0 ****  ****    0 ROOT
