@<TRIPOS>MOLECULE
A1L
   57    58     1     0     0
SMALL
No Charge or Current Charge


@<TRIPOS>ATOM
      1 C2          15.6140    61.7130    26.7600 c          1 A1L       0.576100
      2 C3          17.0620    65.1660    26.2920 c3         1 A1L      -0.206700
      3 C4          16.9540    63.8200    27.0530 c3         1 A1L       0.162000
      4 C5          17.0500    64.9340    24.7680 c          1 A1L       0.722000
      5 C6          13.1490    61.8550    27.3870 ca         1 A1L      -0.104300
      6 N1          15.7650    63.0790    26.6380 ns         1 A1L      -0.498900
      7 C7          14.1790    61.1930    26.4670 c3         1 A1L       0.156600
      8 C8          16.9370    63.9910    28.5740 ca         1 A1L      -0.025300
      9 C11         15.8630    64.6440    29.2130 ca         1 A1L      -0.175000
     10 C12         17.9850    63.4690    29.3540 ca         1 A1L      -0.122000
     11 C14         17.9660    63.5990    30.7510 ca         1 A1L      -0.086000
     12 C15         15.8380    64.7770    30.6190 ca         1 A1L       0.129100
     13 C16         16.8950    64.2520    31.3920 ca         1 A1L      -0.119300
     14 C20         12.7520    66.7010    31.6090 c3         1 A1L       0.016100
     15 C21         16.8860    64.3850    32.9110 c3         1 A1L      -0.025800
     16 C22         12.2110    65.6700    32.5200 c1         1 A1L       0.321900
     17 C24         13.5120    67.7760    32.4360 c3         1 A1L      -0.083100
     18 C25         11.5780    67.3810    30.8540 c3         1 A1L      -0.083100
     19 C26         13.3470    61.8820    28.7850 ca         1 A1L      -0.074000
     20 C27         12.4000    62.4950    29.6240 ca         1 A1L      -0.116500
     21 C28         11.9910    62.4500    26.8430 ca         1 A1L      -0.074000
     22 C29         11.0450    63.0600    27.6860 ca         1 A1L      -0.116500
     23 C30         11.2500    63.0800    29.0740 ca         1 A1L       0.118000
     24 F32         14.0930    59.8360    26.5450 f          1 A1L      -0.250000
     25 N23         11.7750    64.8820    33.2600 n1         1 A1L      -0.475000
     26 O10         16.1190    65.3970    24.1270 o          1 A1L      -0.720000
     27 O13         17.9720    64.3110    24.2620 o          1 A1L      -0.720000
     28 O18         14.8030    65.4140    31.2740 os         1 A1L      -0.357100
     29 O9          16.5440    60.9910    27.1060 o          1 A1L      -0.615100
     30 Cl31        10.0550    63.8280    30.1230 cl         1 A1L      -0.222000
     31 H34         16.1750    65.7610    26.5410 hc         1 A1L       0.037700
     32 H35         17.8330    63.2190    26.7820 h1         1 A1L       0.057700
     33 H33         14.9470    63.6060    26.3560 hn         1 A1L       0.386500
     34 H36         13.9600    61.4730    25.4300 h1         1 A1L       0.080700
     35 H37         15.0550    65.0350    28.6040 ha         1 A1L       0.123000
     36 H38         18.8170    62.9560    28.8760 ha         1 A1L       0.116000
     37 H39         18.7860    63.1890    31.3360 ha         1 A1L       0.100000
     38 H41         18.2450    66.2730    27.7770 hc         1 A1L       0.022700
     39 H40         19.2260    65.4290    26.5590 hc         1 A1L       0.022700
     40 H42         18.3600    66.9210    26.1320 hc         1 A1L       0.022700
     41 H44         14.0700    66.7900    29.8790 h1         1 A1L       0.048200
     42 H43         13.1450    65.2780    29.9980 h1         1 A1L       0.048200
     43 H45         16.8670    65.4390    33.2120 hc         1 A1L       0.033033
     44 H47         16.0030    63.8980    33.3420 hc         1 A1L       0.033033
     45 H46         17.7720    63.9270    33.3670 hc         1 A1L       0.033033
     46 H50         14.3270    67.3310    33.0220 hc         1 A1L       0.045867
     47 H48         13.9490    68.5370    31.7780 hc         1 A1L       0.045867
     48 H49         12.8370    68.2840    33.1360 hc         1 A1L       0.045867
     49 H53         10.8720    67.8460    31.5540 hc         1 A1L       0.045867
     50 H52         11.9490    68.1640    30.1810 hc         1 A1L       0.045867
     51 H51         11.0230    66.6560    30.2460 hc         1 A1L       0.045867
     52 H54         14.2330    61.4270    29.2240 ha         1 A1L       0.135500
     53 H55         12.5570    62.5130    30.7000 ha         1 A1L       0.124000
     54 H56         11.8190    62.4360    25.7680 ha         1 A1L       0.135500
     55 H57         10.1520    63.5130    27.2630 ha         1 A1L       0.124000
     56 C17         18.3000    65.9960    26.7170 c3         1 A1L      -0.060100
     57 C19         13.7010    66.0280    30.5770 c3         1 A1L       0.172600
@<TRIPOS>BOND
     1     1     6 1   
     2     1     7 1   
     3     1    29 2   
     4     2     3 1   
     5     2     4 1   
     6     2    31 1   
     7     2    56 1   
     8     3     6 1   
     9     3     8 1   
    10     3    32 1   
    11     4    26 1   
    12     4    27 1   
    13     5     7 1   
    14     5    19 ar  
    15     5    21 ar  
    16     6    33 1   
    17     7    24 1   
    18     7    34 1   
    19     8     9 ar  
    20     8    10 ar  
    21     9    12 ar  
    22     9    35 1   
    23    10    11 ar  
    24    10    36 1   
    25    11    13 ar  
    26    11    37 1   
    27    12    13 ar  
    28    12    28 1   
    29    13    15 1   
    30    14    16 1   
    31    14    17 1   
    32    14    18 1   
    33    14    57 1   
    34    15    43 1   
    35    15    44 1   
    36    15    45 1   
    37    16    25 3   
    38    17    46 1   
    39    17    47 1   
    40    17    48 1   
    41    18    49 1   
    42    18    50 1   
    43    18    51 1   
    44    19    20 ar  
    45    19    52 1   
    46    20    23 ar  
    47    20    53 1   
    48    21    22 ar  
    49    21    54 1   
    50    22    23 ar  
    51    22    55 1   
    52    23    30 1   
    53    28    57 1   
    54    38    56 1   
    55    39    56 1   
    56    40    56 1   
    57    41    57 1   
    58    42    57 1   
@<TRIPOS>SUBSTRUCTURE
     1 A1L         1 TEMP              0 ****  ****    0 ROOT
