@<TRIPOS>MOLECULE
A1L
   53    56     1     0     0
SMALL
No Charge or Current Charge


@<TRIPOS>ATOM
      1 C11         92.6620    92.7110   130.9570 c3         1 A1L       0.161300
      2 C12         94.2340    92.4520   128.9880 c3         1 A1L       0.161300
      3 C13         93.7870    93.1040   131.9650 c3         1 A1L       0.198300
      4 C14         94.0790    93.8860   128.3960 c3         1 A1L       0.198300
      5 C15         91.9110    91.5900   128.8800 c3         1 A1L       0.158100
      6 C16         95.4980    94.9450   132.3350 ca         1 A1L       0.383500
      7 C19         96.3740    96.8450   128.1830 ca         1 A1L      -0.130500
      8 C21         96.3360    98.2610   128.2440 ca         1 A1L       0.307500
      9 C22         96.8090    94.8540   131.8790 ca         1 A1L      -0.282500
     10 C23         94.2250    96.8300   129.2840 ca         1 A1L      -0.282500
     11 C24         93.9180    95.8300   134.0200 ca         1 A1L      -0.078500
     12 C25         97.4900    96.1970   127.5960 ca         1 A1L      -0.078500
     13 C26         97.8290    95.4410   132.6270 ca         1 A1L       0.399900
     14 C27         94.2680    98.2230   129.3030 ca         1 A1L       0.399900
     15 C28         96.0890    96.9190   135.4200 ca         1 A1L      -0.087500
     16 C31         98.5550    96.9530   127.0810 ca         1 A1L      -0.121000
     17 C17         95.2820    96.1250   128.7140 ca         1 A1L       0.383500
     18 C18         95.2330    95.6530   133.5280 ca         1 A1L      -0.130500
     19 C20         96.3300    96.2150   134.2270 ca         1 A1L       0.307500
     20 C29         97.4130    98.9970   127.7210 ca         1 A1L      -0.087500
     21 C30         93.6990    96.5390   135.2110 ca         1 A1L      -0.121000
     22 C32         94.7860    97.0780   135.9120 ca         1 A1L       0.134500
     23 C33         98.5140    98.3510   127.1450 ca         1 A1L       0.134500
     24 N06         93.0650    91.9200   129.7480 n3         1 A1L      -0.732600
     25 N07         94.5080    94.3380   131.5710 nu         1 A1L      -0.967200
     26 N08         95.2540    94.7270   128.7270 nu         1 A1L      -0.967200
     27 N09         97.6010    96.1030   133.7790 nb         1 A1L      -0.696500
     28 N10         95.2970    98.9280   128.7930 nb         1 A1L      -0.696500
     29 Cl01        94.5120    97.9670   137.4040 cl         1 A1L      -0.198000
     30 Cl02        99.8490    99.2970   126.4980 cl         1 A1L      -0.198000
     31 H1          92.1340    93.6270   130.6590 h1         1 A1L       0.047700
     32 H2          91.9320    92.1150   131.5220 h1         1 A1L       0.047700
     33 H3          94.4770    91.7720   128.1600 h1         1 A1L       0.047700
     34 H4          95.1150    92.4370   129.6420 h1         1 A1L       0.047700
     35 H5          93.3190    93.2520   132.9480 h1         1 A1L       0.056200
     36 H6          94.4870    92.2630   132.0690 h1         1 A1L       0.056200
     37 H7          93.1670    94.3390   128.8020 h1         1 A1L       0.056200
     38 H8          93.9440    93.8240   127.3070 h1         1 A1L       0.056200
     39 H9          91.1260    91.0820   129.4550 h1         1 A1L       0.035700
     40 H10         91.4780    92.4980   128.4380 h1         1 A1L       0.035700
     41 H11         92.2160    90.9220   128.0640 h1         1 A1L       0.035700
     42 H12         97.0470    94.3240   130.9640 ha         1 A1L       0.121500
     43 H14         93.0610    95.4350   133.4820 ha         1 A1L       0.107500
     44 H15         97.5470    95.1140   127.5270 ha         1 A1L       0.107500
     45 H16         98.8660    95.3780   132.2990 h4         1 A1L       0.016600
     46 H17         93.4560    98.7980   129.7460 h4         1 A1L       0.016600
     47 H18         96.9230    97.3500   135.9650 ha         1 A1L       0.148000
     48 H19         99.4100    96.4550   126.6310 ha         1 A1L       0.129000
     49 H20         97.3910   100.0810   127.7650 ha         1 A1L       0.148000
     50 H21         92.6890    96.6730   135.5890 ha         1 A1L       0.129000
     51 H23         94.7240    94.3910   130.5640 hn         1 A1L       0.481000
     52 H24         96.1470    94.3190   128.4470 hn         1 A1L       0.481000
     53 H13         93.3790    96.3200   129.7290 ha         1 A1L       0.121500
@<TRIPOS>BOND
     1     1     3 1   
     2     1    24 1   
     3     1    31 1   
     4     1    32 1   
     5     2     4 1   
     6     2    24 1   
     7     2    33 1   
     8     2    34 1   
     9     3    25 1   
    10     3    35 1   
    11     3    36 1   
    12     4    26 1   
    13     4    37 1   
    14     4    38 1   
    15     5    24 1   
    16     5    39 1   
    17     5    40 1   
    18     5    41 1   
    19     6     9 ar  
    20     6    18 ar  
    21     6    25 1   
    22     7     8 ar  
    23     7    12 ar  
    24     7    17 ar  
    25     8    20 ar  
    26     8    28 ar  
    27     9    13 ar  
    28     9    42 1   
    29    10    14 ar  
    30    10    17 ar  
    31    10    53 1   
    32    11    18 ar  
    33    11    21 ar  
    34    11    43 1   
    35    12    16 ar  
    36    12    44 1   
    37    13    27 ar  
    38    13    45 1   
    39    14    28 ar  
    40    14    46 1   
    41    15    19 ar  
    42    15    22 ar  
    43    15    47 1   
    44    16    23 ar  
    45    16    48 1   
    46    17    26 1   
    47    18    19 ar  
    48    19    27 ar  
    49    20    23 ar  
    50    20    49 1   
    51    21    22 ar  
    52    21    50 1   
    53    22    29 1   
    54    23    30 1   
    55    25    51 1   
    56    26    52 1   
@<TRIPOS>SUBSTRUCTURE
     1 A1L         1 TEMP              0 ****  ****    0 ROOT
