@<TRIPOS>MOLECULE
A1L
   62    66     1     0     0
SMALL
abcg2


@<TRIPOS>ATOM
      1 C11         14.8290    -2.4720    -5.9520 ca         1 A1L      -0.067000
      2 C12         13.5600    -2.7410    -6.4410 ca         1 A1L      -0.125000
      3 C13         12.8100    -1.7110    -6.9780 ca         1 A1L      -0.078000
      4 C14         13.3390    -0.4300    -7.0560 ca         1 A1L      -0.107000
      5 C17         12.6110     3.6910    -4.8110 ca         1 A1L       0.434900
      6 C19         13.0940     2.5090    -2.7290 ca         1 A1L       0.248000
      7 C20         13.9220     2.8300    -1.6430 ca         1 A1L       0.129100
      8 C22         15.0030     4.5250    -0.3850 c3         1 A1L       0.149900
      9 C24         14.3000     0.4680    -1.2540 ca         1 A1L      -0.022300
     10 C25         14.9520    -0.6300    -0.4610 c6         1 A1L      -0.030100
     11 C26         14.9540    -1.9450    -1.2220 c6         1 A1L       0.162800
     12 C29         13.2720    -1.2710    -2.7640 c6         1 A1L       0.211100
     13 C30         13.4780     0.1520    -2.3280 ca         1 A1L      -0.095300
     14 C33         11.9730     4.8070    -6.6620 ca         1 A1L       0.200900
     15 C34         12.7370     3.9720    -7.4770 ca         1 A1L      -0.323800
     16 C35         12.8310     4.0450    -8.9150 cc         1 A1L       0.310800
     17 C02         14.4630     2.2040    -8.8530 c          1 A1L       0.594200
     18 C05         14.6140    -0.1400    -6.5870 ca         1 A1L      -0.015300
     19 C06         15.3500    -1.1840    -6.0030 ca         1 A1L      -0.195300
     20 C07         16.6880    -0.9200    -5.3780 c3         1 A1L       0.352300
     21 C15         13.4880     3.0040    -6.7840 ca         1 A1L       0.322900
     22 C23         14.5050     1.8040    -0.9110 ca         1 A1L      -0.187000
     23 C31         12.8770     1.1800    -3.0450 ca         1 A1L      -0.061000
     24 C37         13.6730     3.1670    -9.5470 cd         1 A1L      -0.458200
     25 F08         17.5980    -0.4870    -6.2650 f          1 A1L      -0.114333
     26 F09         16.6020     0.0190    -4.4200 f          1 A1L      -0.114333
     27 F10         17.2140    -2.0000    -4.7950 f          1 A1L      -0.114333
     28 N03         14.3390     2.1750    -7.4530 n          1 A1L      -0.374300
     29 N16         13.4090     2.8670    -5.4730 nb         1 A1L      -0.303000
     30 N27         13.6260    -2.2240    -1.7340 n3         1 A1L      -0.708600
     31 N32         11.8970     4.6930    -5.3550 nb         1 A1L      -0.263000
     32 N36         12.1300     4.9770    -9.5900 nv         1 A1L      -0.959000
     33 O01         15.2250     1.4120    -9.3940 o          1 A1L      -0.543000
     34 O21         14.0880     4.1420    -1.3910 os         1 A1L      -0.346100
     35 H111        15.3990    -3.2780    -5.5110 ha         1 A1L       0.127000
     36 H121        13.1630    -3.7450    -6.3860 ha         1 A1L       0.119000
     37 H131        11.8090    -1.8960    -7.3450 ha         1 A1L       0.117000
     38 H141        12.7360     0.3510    -7.4990 ha         1 A1L       0.122000
     39 H222        15.0360     5.6120    -0.3950 h1         1 A1L       0.042700
     40 H223        14.6860     4.1920     0.6070 h1         1 A1L       0.042700
     41 H221        16.0080     4.1410    -0.5810 h1         1 A1L       0.042700
     42 H252        14.4190    -0.7620     0.4850 hc         1 A1L       0.056200
     43 H251        15.9760    -0.3490    -0.2030 hc         1 A1L       0.056200
     44 H261        15.7020    -1.9110    -2.0340 h1         1 A1L       0.037200
     45 H262        15.2520    -2.7540    -0.5530 h1         1 A1L       0.037200
     46 H291        13.8650    -1.4370    -3.6800 h1         1 A1L       0.043200
     47 H292        12.2260    -1.4240    -3.0460 h1         1 A1L       0.043200
     48 H331        11.3940     5.6190    -7.0900 h4         1 A1L       0.016100
     49 H042        15.3410     1.6880    -5.7260 h1         1 A1L       0.097700
     50 H041        16.1450     1.2280    -7.2160 h1         1 A1L       0.097700
     51 H231        15.1520     2.0260    -0.0710 ha         1 A1L       0.119000
     52 H282        12.4950    -3.7600    -2.5850 h1         1 A1L       0.030700
     53 H283        14.1970    -3.7880    -3.0700 h1         1 A1L       0.030700
     54 H281        13.7250    -4.2890    -1.4370 h1         1 A1L       0.030700
     55 H311        12.2310     0.9360    -3.8810 ha         1 A1L       0.126000
     56 H371        13.7620     3.1770   -10.6260 ha         1 A1L       0.207000
     57 H181        11.9960     4.2680    -2.9890 hn         1 A1L       0.527000
     58 H361        12.1070     4.9220   -10.5950 hn         1 A1L       0.480000
     59 H362        11.3250     5.4150    -9.1790 hn         1 A1L       0.480000
     60 C04         15.1820     1.2580    -6.7120 c3         1 A1L       0.124300
     61 N18         12.4960     3.5400    -3.4760 nu         1 A1L      -0.914900
     62 C28         13.5120    -3.5760    -2.2340 c3         1 A1L       0.152100
@<TRIPOS>BOND
     1     1     2 ar  
     2     1    19 ar  
     3     1    35 1   
     4     2     3 ar  
     5     2    36 1   
     6     3     4 ar  
     7     3    37 1   
     8     4    18 ar  
     9     4    38 1   
    10     5    29 ar  
    11     5    31 ar  
    12     5    61 1   
    13     6     7 ar  
    14     6    23 ar  
    15     6    61 1   
    16     7    22 ar  
    17     7    34 1   
    18     8    34 1   
    19     8    39 1   
    20     8    40 1   
    21     8    41 1   
    22     9    10 1   
    23     9    13 ar  
    24     9    22 ar  
    25    10    11 1   
    26    10    42 1   
    27    10    43 1   
    28    11    30 1   
    29    11    44 1   
    30    11    45 1   
    31    12    13 1   
    32    12    30 1   
    33    12    46 1   
    34    12    47 1   
    35    13    23 ar  
    36    14    15 ar  
    37    14    31 ar  
    38    14    48 1   
    39    15    16 1   
    40    15    21 ar  
    41    16    24 2   
    42    16    32 1   
    43    17    24 1   
    44    17    28 1   
    45    17    33 2   
    46    18    19 ar  
    47    18    60 1   
    48    19    20 1   
    49    20    25 1   
    50    20    26 1   
    51    20    27 1   
    52    21    28 1   
    53    21    29 ar  
    54    22    51 1   
    55    23    55 1   
    56    24    56 1   
    57    28    60 1   
    58    30    62 1   
    59    32    58 1   
    60    32    59 1   
    61    49    60 1   
    62    50    60 1   
    63    52    62 1   
    64    53    62 1   
    65    54    62 1   
    66    57    61 1   
@<TRIPOS>SUBSTRUCTURE
     1 A1L         1 TEMP              0 ****  ****    0 ROOT
