@<TRIPOS>MOLECULE
A1L
   62    64     1     0     0
SMALL
No Charge or Current Charge


@<TRIPOS>ATOM
      1 C1          15.3260    65.5640    25.9520 c3         1 A1L      -0.208700
      2 C2          15.8690    64.4680    26.9020 c3         1 A1L       0.172000
      3 C3          15.4010    65.0980    24.4840 c          1 A1L       0.719000
      4 C6          15.7810    64.8730    28.3770 ca         1 A1L      -0.064300
      5 C9          14.5360    60.8540    27.0630 c3         1 A1L       0.157600
      6 C10         16.9460    65.2240    29.0850 ca         1 A1L      -0.094500
      7 C11         14.5410    64.8840    29.0500 ca         1 A1L      -0.094500
      8 C13         13.3170    61.3390    27.8520 ca         1 A1L      -0.120300
      9 C14         16.8740    65.5830    30.4430 ca         1 A1L      -0.119000
     10 C15         14.4720    65.2320    30.4090 ca         1 A1L      -0.119000
     11 C16         15.6360    65.5850    31.1130 ca         1 A1L      -0.098300
     12 C17         16.0340    66.9300    26.1370 c3         1 A1L      -0.060100
     13 C18         15.5550    65.9700    32.5820 c3         1 A1L      -0.036800
     14 C19         12.1170    61.6600    27.1870 ca         1 A1L      -0.085500
     15 C20         11.0420    62.2200    27.8980 ca         1 A1L      -0.108000
     16 C21         13.4160    61.5610    29.2400 ca         1 A1L      -0.085500
     17 C22         12.3410    62.1200    29.9480 ca         1 A1L      -0.108000
     18 C23         11.1530    62.4670    29.2800 ca         1 A1L      -0.076300
     19 C24         10.0160    63.1410    30.0410 c3         1 A1L      -0.069400
     20 C25         10.4270    64.5010    30.6090 ca         1 A1L       0.324300
     21 C27         10.7840    65.7800    32.5160 ca         1 A1L       0.287900
     22 C28         11.1690    66.8950    31.7520 ca         1 A1L      -0.128000
     23 C29         11.1800    66.8030    30.3490 ca         1 A1L      -0.173000
     24 C30         10.8010    65.5780    29.7560 ca         1 A1L       0.117100
     25 C33         11.3000    66.3920    27.4760 c3         1 A1L       0.158600
     26 C34         11.2180    65.7990    26.0620 c3         1 A1L      -0.100100
     27 F31         15.0000    59.6700    27.5500 f          1 A1L      -0.250000
     28 N26         10.4170    64.6010    31.9650 nb         1 A1L      -0.653000
     29 N4          15.1510    63.2130    26.7010 ns         1 A1L      -0.492900
     30 O12         14.3530    64.9670    23.8710 o          1 A1L      -0.727000
     31 O32         10.7940    65.4010    28.3830 os         1 A1L      -0.334100
     32 O7          16.5000    64.8920    23.9900 o          1 A1L      -0.727000
     33 O8          16.7960    61.7840    27.3710 o          1 A1L      -0.611100
     34 H35         14.2680    65.7170    26.1980 hc         1 A1L       0.034700
     35 H36         16.9240    64.2960    26.6490 h1         1 A1L       0.063700
     36 H38         14.2480    60.6910    26.0180 h1         1 A1L       0.075700
     37 H39         17.9110    65.2210    28.5830 ha         1 A1L       0.117000
     38 H40         13.6280    64.6110    28.5260 ha         1 A1L       0.117000
     39 H41         17.7820    65.8550    30.9750 ha         1 A1L       0.097500
     40 H42         13.5110    65.2230    30.9170 ha         1 A1L       0.097500
     41 H45         15.8630    67.3290    27.1440 hc         1 A1L       0.021033
     42 H44         17.1160    66.8350    25.9840 hc         1 A1L       0.021033
     43 H43         15.6470    67.6610    25.4180 hc         1 A1L       0.021033
     44 H46         15.4110    67.0510    32.6940 hc         1 A1L       0.030033
     45 H48         14.7190    65.4670    33.0820 hc         1 A1L       0.030033
     46 H47         16.4720    65.6960    33.1180 hc         1 A1L       0.030033
     47 H49         12.0210    61.5020    26.1140 ha         1 A1L       0.129500
     48 H50         10.1320    62.4870    27.3660 ha         1 A1L       0.112500
     49 H51         14.3400    61.3300    29.7660 ha         1 A1L       0.129500
     50 H52         12.4410    62.3080    31.0150 ha         1 A1L       0.112500
     51 H54          9.6760    62.4760    30.8430 hc         1 A1L       0.060700
     52 H53          9.1470    63.2790    29.3870 hc         1 A1L       0.060700
     53 H55         10.7690    65.8320    33.6040 h4         1 A1L       0.013100
     54 H56         11.4560    67.8180    32.2490 ha         1 A1L       0.115000
     55 H57         11.4770    67.6640    29.7570 ha         1 A1L       0.124000
     56 H58         12.3450    66.6360    27.7090 h1         1 A1L       0.033700
     57 H59         10.7020    67.3110    27.5260 h1         1 A1L       0.033700
     58 H60         11.6180    66.5080    25.3290 hc         1 A1L       0.058367
     59 H61         11.8020    64.8730    25.9980 hc         1 A1L       0.058367
     60 H62         10.1780    65.5760    25.7970 hc         1 A1L       0.058367
     61 H37         14.1690    63.2670    26.4620 hn         1 A1L       0.373500
     62 C5          15.6250    61.9660    27.0540 c          1 A1L       0.578100
@<TRIPOS>BOND
     1     1     2 1   
     2     1     3 1   
     3     1    12 1   
     4     1    34 1   
     5     2     4 1   
     6     2    29 1   
     7     2    35 1   
     8     3    30 1   
     9     3    32 1   
    10     4     6 ar  
    11     4     7 ar  
    12     5     8 1   
    13     5    27 1   
    14     5    36 1   
    15     5    62 1   
    16     6     9 ar  
    17     6    37 1   
    18     7    10 ar  
    19     7    38 1   
    20     8    14 ar  
    21     8    16 ar  
    22     9    11 ar  
    23     9    39 1   
    24    10    11 ar  
    25    10    40 1   
    26    11    13 1   
    27    12    41 1   
    28    12    42 1   
    29    12    43 1   
    30    13    44 1   
    31    13    45 1   
    32    13    46 1   
    33    14    15 ar  
    34    14    47 1   
    35    15    18 ar  
    36    15    48 1   
    37    16    17 ar  
    38    16    49 1   
    39    17    18 ar  
    40    17    50 1   
    41    18    19 1   
    42    19    20 1   
    43    19    51 1   
    44    19    52 1   
    45    20    24 ar  
    46    20    28 ar  
    47    21    22 ar  
    48    21    28 ar  
    49    21    53 1   
    50    22    23 ar  
    51    22    54 1   
    52    23    24 ar  
    53    23    55 1   
    54    24    31 1   
    55    25    26 1   
    56    25    31 1   
    57    25    56 1   
    58    25    57 1   
    59    26    58 1   
    60    26    59 1   
    61    26    60 1   
    62    29    61 1   
    63    29    62 1   
    64    33    62 2   
@<TRIPOS>SUBSTRUCTURE
     1 A1L         1 TEMP              0 ****  ****    0 ROOT
