@<TRIPOS>MOLECULE
A1L
   54    57     1     0     0
SMALL
No Charge or Current Charge


@<TRIPOS>ATOM
      1 C13        -44.0000    29.3930    31.6120 ca         1 A1L       0.214000
      2 C15        -42.9290    27.2180    31.6560 ca         1 A1L       0.128400
      3 C17        -44.7670    27.6620    33.1550 ca         1 A1L       0.200000
      4 C24        -52.8670    33.0000    36.0660 ca         1 A1L      -0.128000
      5 C26        -54.4440    31.9590    34.5360 ca         1 A1L      -0.160000
      6 C28        -52.1130    31.2750    34.5240 ca         1 A1L      -0.110000
      7 C01        -49.0390    33.3580    34.1940 cc         1 A1L       0.318000
      8 C02        -47.9940    32.8870    33.4660 cd         1 A1L      -0.343600
      9 C03        -47.3400    33.6440    32.3840 c          1 A1L       0.669700
     10 C06        -47.7260    31.5870    33.9650 cd         1 A1L       0.432000
     11 C08        -46.7370    30.6530    33.5540 ch         1 A1L      -0.150000
     12 C12        -44.8850    28.9790    32.6350 ca         1 A1L      -0.035000
     13 C14        -43.0390    28.4800    31.1550 ca         1 A1L      -0.148200
     14 C16        -43.7860    26.7730    32.6670 ca         1 A1L      -0.117000
     15 C19        -41.3960    27.3910    30.1460 cc         1 A1L       0.435800
     16 C23        -51.8290    32.2030    35.5500 ca         1 A1L      -0.092300
     17 C25        -54.1700    32.8790    35.5610 ca         1 A1L      -0.081000
     18 C27        -53.4210    31.1520    34.0050 ca         1 A1L      -0.013000
     19 C30        -53.0160    29.4080    32.1600 c          1 A1L       0.606300
     20 C31        -53.8320    28.5930    31.2070 ce         1 A1L      -0.307200
     21 C35        -53.3130    27.7590    30.2710 c2         1 A1L      -0.223000
     22 F33        -45.6000    27.2360    34.1340 f          1 A1L      -0.158000
     23 F34        -44.0660    30.6370    31.0790 f          1 A1L      -0.168000
     24 N04        -49.3520    32.3310    35.0860 na         1 A1L       0.083800
     25 N05        -48.5330    31.2300    34.9490 nc         1 A1L      -0.494800
     26 N10        -46.3100    33.0460    31.7600 nt         1 A1L      -0.599000
     27 N18        -42.0740    28.6050    30.1970 na         1 A1L      -0.296600
     28 N20        -41.9010    26.5140    31.0360 nd         1 A1L      -0.579100
     29 N29        -53.7750    30.2400    32.9720 ns         1 A1L      -0.145000
     30 O09        -47.6760    34.7610    32.0290 o          1 A1L      -0.667100
     31 O32        -51.7940    29.3400    32.1840 o          1 A1L      -0.569100
     32 H1         -39.8750    26.0900    29.3570 hc         1 A1L       0.063700
     33 H2         -40.5690    27.2150    28.1750 hc         1 A1L       0.063700
     34 H3         -39.4280    27.8060    29.4000 hc         1 A1L       0.063700
     35 H4         -50.3280    33.2770    36.6780 h1         1 A1L       0.072200
     36 H5         -50.2300    31.5200    36.8150 h1         1 A1L       0.072200
     37 H6         -52.6670    33.7150    36.8620 ha         1 A1L       0.109000
     38 H7         -55.4590    31.8750    34.1530 ha         1 A1L       0.110000
     39 H8         -51.3080    30.6500    34.1500 ha         1 A1L       0.165000
     40 H9         -43.7000    25.7670    33.0670 ha         1 A1L       0.155000
     41 H10        -54.9690    33.4970    35.9640 ha         1 A1L       0.114000
     42 H11        -54.9130    28.7110    31.2900 ha         1 A1L       0.175000
     43 H13        -53.9510    27.1900    29.5930 ha         1 A1L       0.178500
     44 H14        -52.2370    27.6190    30.1520 ha         1 A1L       0.178500
     45 H16        -50.6450    34.6180    34.5010 hn         1 A1L       0.488500
     46 H17        -49.4620    35.1730    33.3600 hn         1 A1L       0.488500
     47 H18        -45.8400    33.5350    31.0150 hn         1 A1L       0.317000
     48 H19        -46.0160    32.1230    32.0370 hn         1 A1L       0.317000
     49 H20        -41.8760    29.4170    29.6250 hn         1 A1L       0.366000
     50 H22        -54.7700    30.1870    32.8000 hn         1 A1L       0.150000
     51 C21        -40.2540    27.1090    29.2180 c3         1 A1L      -0.118400
     52 C11        -45.8890    29.8800    33.1380 cg         1 A1L      -0.100000
     53 N07        -49.6970    34.5530    34.1360 nv         1 A1L      -1.067000
     54 C22        -50.4130    32.3420    36.1120 c3         1 A1L       0.133900
@<TRIPOS>BOND
     1     1    12 ar  
     2     1    13 ar  
     3     1    23 1   
     4     2    13 ar  
     5     2    14 ar  
     6     2    28 1   
     7     3    12 ar  
     8     3    14 ar  
     9     3    22 1   
    10     4    16 ar  
    11     4    17 ar  
    12     4    37 1   
    13     5    17 ar  
    14     5    18 ar  
    15     5    38 1   
    16     6    16 ar  
    17     6    18 ar  
    18     6    39 1   
    19     7     8 2   
    20     7    24 1   
    21     7    53 1   
    22     8     9 1   
    23     8    10 1   
    24     9    26 1   
    25     9    30 2   
    26    10    11 1   
    27    10    25 2   
    28    11    52 3   
    29    12    52 1   
    30    13    27 1   
    31    14    40 1   
    32    15    27 1   
    33    15    28 2   
    34    15    51 1   
    35    16    54 1   
    36    17    41 1   
    37    18    29 1   
    38    19    20 1   
    39    19    29 1   
    40    19    31 2   
    41    20    21 2   
    42    20    42 1   
    43    21    43 1   
    44    21    44 1   
    45    24    25 1   
    46    24    54 1   
    47    26    47 1   
    48    26    48 1   
    49    27    49 1   
    50    29    50 1   
    51    32    51 1   
    52    33    51 1   
    53    34    51 1   
    54    35    54 1   
    55    36    54 1   
    56    45    53 1   
    57    46    53 1   
@<TRIPOS>SUBSTRUCTURE
     1 A1L         1 TEMP              0 ****  ****    0 ROOT
