@<TRIPOS>MOLECULE
A1L
   54    57     1     0     0
SMALL
abcg2


@<TRIPOS>ATOM
      1 C13        -44.4550    29.2900    31.3960 ca         1 A1L       0.214000
      2 C15        -43.2320    27.2250    31.7110 ca         1 A1L       0.128400
      3 C17        -44.9140    27.8290    33.2450 ca         1 A1L       0.200000
      4 C24        -52.8810    32.9690    35.8490 ca         1 A1L      -0.128000
      5 C26        -54.2270    31.8480    34.1990 ca         1 A1L      -0.160000
      6 C28        -51.9300    31.2010    34.5100 ca         1 A1L      -0.110000
      7 C01        -49.0880    33.4610    34.4650 cc         1 A1L       0.318000
      8 C02        -48.0690    33.0350    33.6100 cd         1 A1L      -0.343600
      9 C03        -47.4370    33.8950    32.6130 c          1 A1L       0.669700
     10 C06        -47.8520    31.6840    33.9980 cd         1 A1L       0.432000
     11 C08        -46.9270    30.7500    33.4720 ch         1 A1L      -0.150000
     12 C12        -45.1810    29.0260    32.5510 ca         1 A1L      -0.035000
     13 C14        -43.4850    28.4020    30.9850 ca         1 A1L      -0.148200
     14 C16        -43.9650    26.9200    32.8610 ca         1 A1L      -0.117000
     15 C19        -41.8660    27.2410    30.0720 cc         1 A1L       0.435800
     16 C23        -51.8030    32.1680    35.5040 ca         1 A1L      -0.092300
     17 C25        -54.0950    32.7970    35.1940 ca         1 A1L      -0.081000
     18 C27        -53.1420    31.0400    33.8420 ca         1 A1L      -0.013000
     19 C30        -52.4500    29.3090    32.1930 c          1 A1L       0.606300
     20 C31        -53.0500    28.4820    31.1140 ce         1 A1L      -0.307200
     21 C35        -52.3050    27.6860    30.3560 c2         1 A1L      -0.223000
     22 F33        -45.6420    27.5990    34.3430 f          1 A1L      -0.158000
     23 F34        -44.7000    30.4020    30.7060 f          1 A1L      -0.168000
     24 N04        -49.3790    32.4170    35.2650 na         1 A1L       0.083800
     25 N05        -48.6430    31.3270    34.9870 nc         1 A1L      -0.494800
     26 N10        -46.4780    33.3560    31.8410 nt         1 A1L      -0.599000
     27 N18        -42.5970    28.3770    29.9460 na         1 A1L      -0.296600
     28 N20        -42.2210    26.5280    31.1130 nd         1 A1L      -0.579100
     29 N29        -53.3530    30.1060    32.8260 ns         1 A1L      -0.145000
     30 O09        -47.7760    35.0740    32.4950 o          1 A1L      -0.667100
     31 O32        -51.2630    29.2680    32.4670 o          1 A1L      -0.569100
     32 H1         -40.3170    25.9590    29.4160 hc         1 A1L       0.063700
     33 H2         -41.1920    26.7650    28.1070 hc         1 A1L       0.063700
     34 H3         -40.0330    27.6710    29.0710 hc         1 A1L       0.063700
     35 H4         -50.4780    33.2130    36.8430 h1         1 A1L       0.072200
     36 H5         -50.2640    31.4750    36.8480 h1         1 A1L       0.072200
     37 H6         -52.7760    33.7250    36.6170 ha         1 A1L       0.109000
     38 H7         -55.1760    31.7340    33.6870 ha         1 A1L       0.110000
     39 H8         -51.0850    30.5810    34.2600 ha         1 A1L       0.165000
     40 H9         -43.7890    26.0150    33.4270 ha         1 A1L       0.155000
     41 H10        -54.9430    33.4160    35.4540 ha         1 A1L       0.114000
     42 H11        -54.1200    28.5460    30.9490 ha         1 A1L       0.175000
     43 H13        -52.7470    27.0910    29.5690 ha         1 A1L       0.178500
     44 H14        -51.2340    27.6040    30.4930 ha         1 A1L       0.178500
     45 H16        -50.1800    34.9100    35.3840 hn         1 A1L       0.488500
     46 H17        -49.3170    35.3820    34.0020 hn         1 A1L       0.488500
     47 H18        -46.0210    33.9280    31.1510 hn         1 A1L       0.317000
     48 H19        -46.1870    32.3970    31.9110 hn         1 A1L       0.317000
     49 H20        -42.4900    29.0730    29.2240 hn         1 A1L       0.366000
     50 H22        -54.3030    30.0620    32.4840 hn         1 A1L       0.150000
     51 C21        -40.7910    26.8890    29.1140 c3         1 A1L      -0.118400
     52 C11        -46.1340    29.9510    33.0390 cg         1 A1L      -0.100000
     53 N07        -49.7610    34.6330    34.5110 nv         1 A1L      -1.067000
     54 C22        -50.4740    32.3290    36.2030 c3         1 A1L       0.133900
@<TRIPOS>BOND
     1     1    12 ar  
     2     1    13 ar  
     3     1    23 1   
     4     2    13 ar  
     5     2    14 ar  
     6     2    28 1   
     7     3    12 ar  
     8     3    14 ar  
     9     3    22 1   
    10     4    16 ar  
    11     4    17 ar  
    12     4    37 1   
    13     5    17 ar  
    14     5    18 ar  
    15     5    38 1   
    16     6    16 ar  
    17     6    18 ar  
    18     6    39 1   
    19     7     8 2   
    20     7    24 1   
    21     7    53 1   
    22     8     9 1   
    23     8    10 1   
    24     9    26 1   
    25     9    30 2   
    26    10    11 1   
    27    10    25 2   
    28    11    52 3   
    29    12    52 1   
    30    13    27 1   
    31    14    40 1   
    32    15    27 1   
    33    15    28 2   
    34    15    51 1   
    35    16    54 1   
    36    17    41 1   
    37    18    29 1   
    38    19    20 1   
    39    19    29 1   
    40    19    31 2   
    41    20    21 2   
    42    20    42 1   
    43    21    43 1   
    44    21    44 1   
    45    24    25 1   
    46    24    54 1   
    47    26    47 1   
    48    26    48 1   
    49    27    49 1   
    50    29    50 1   
    51    32    51 1   
    52    33    51 1   
    53    34    51 1   
    54    35    54 1   
    55    36    54 1   
    56    45    53 1   
    57    46    53 1   
@<TRIPOS>SUBSTRUCTURE
     1 A1L         1 TEMP              0 ****  ****    0 ROOT
