@<TRIPOS>MOLECULE
A1L
   58    62     1     0     0
SMALL
abcg2


@<TRIPOS>ATOM
      1 C4         190.4130   -23.8490   178.6170 ca         1 A1L       0.154500
      2 C5         190.0480   -23.9150   177.2690 ca         1 A1L      -0.368900
      3 C6         190.1760   -25.1920   176.6720 ca         1 A1L       0.454900
      4 N1         190.7200   -26.1800   177.3870 nb         1 A1L      -0.312000
      5 N3         190.9350   -24.8380   179.3460 nb         1 A1L      -0.234000
      6 CBH        197.3190   -16.5060   178.6870 c3         1 A1L      -0.082100
      7 CBF        196.4610   -16.7330   179.9250 c3         1 A1L      -0.158400
      8 CBE        195.7650   -18.0780   179.8940 c          1 A1L       0.606100
      9 OBG        196.3690   -19.1080   179.6560 o          1 A1L      -0.576100
     10 CBA        193.4910   -19.0540   180.1970 ca         1 A1L      -0.006000
     11 CBB        192.1470   -18.6780   180.2590 ca         1 A1L      -0.156000
     12 CBC        191.1470   -19.6320   180.3140 ca         1 A1L      -0.055000
     13 CAZ        193.8080   -20.4150   180.1970 ca         1 A1L      -0.156000
     14 CAY        192.7930   -21.3570   180.2560 ca         1 A1L      -0.055000
     15 CAX        191.4540   -20.9880   180.3120 ca         1 A1L      -0.144300
     16 NAG        190.1300   -22.6010   179.0360 na         1 A1L      -0.011100
     17 NAH        189.6390   -21.8520   178.0460 nc         1 A1L      -0.514100
     18 C2         191.0700   -25.9480   178.6510 ca         1 A1L       0.197900
     19 NAJ        189.7860   -25.4710   175.4270 nv         1 A1L      -1.061900
     20 CAI        189.5830   -22.6040   176.9690 cd         1 A1L       0.452200
     21 CAK        189.1070   -22.0290   175.7240 cd         1 A1L      -0.079000
     22 CAO        189.4930   -22.3080   174.4510 cc         1 A1L      -0.185200
     23 SAL        187.9310   -20.7470   175.7990 ss         1 A1L       0.160400
     24 CAM        187.9520   -20.5960   174.0780 ca         1 A1L      -0.215000
     25 CAN        188.8310   -21.4980   173.4750 ca         1 A1L      -0.036800
     26 CAS        188.9640   -21.5030   172.0780 ca         1 A1L      -0.112000
     27 CAR        188.2170   -20.6230   171.3210 ca         1 A1L      -0.040300
     28 CAT        188.3200   -20.6080   169.8240 c3         1 A1L      -0.048800
     29 CAQ        187.3350   -19.7190   171.9490 ca         1 A1L      -0.196000
     30 CAP        187.1960   -19.6930   173.3250 ca         1 A1L       0.173100
     31 OAU        186.3950   -18.8760   174.0260 os         1 A1L      -0.338100
     32 CAV        185.6000   -17.9440   173.3180 c3         1 A1L       0.148900
     33 H1         197.8320   -15.5480   178.7570 hc         1 A1L       0.044700
     34 H2         198.0760   -17.2810   178.5770 hc         1 A1L       0.044700
     35 H3         196.7130   -16.4920   177.7810 hc         1 A1L       0.044700
     36 H4         197.0920   -16.7180   180.8190 hc         1 A1L       0.057700
     37 H5         195.7450   -15.9180   180.0400 hc         1 A1L       0.057700
     38 H6         194.0490   -17.1000   180.2960 hn         1 A1L       0.149000
     39 H7         191.8820   -17.6270   180.2630 ha         1 A1L       0.128500
     40 H8         190.1130   -19.3110   180.3590 ha         1 A1L       0.120500
     41 H9         194.8330   -20.7470   180.1610 ha         1 A1L       0.128500
     42 H10        193.0610   -22.4070   180.2620 ha         1 A1L       0.120500
     43 H11        189.4320   -21.5960   180.7040 h1         1 A1L       0.076200
     44 H12        190.6300   -22.8500   181.0050 h1         1 A1L       0.076200
     45 H13        191.5100   -26.7910   179.1730 h5         1 A1L       0.046100
     46 H14        189.8130   -26.4290   175.1190 hn         1 A1L       0.500000
     47 H15        189.1840   -24.8470   174.9170 hn         1 A1L       0.500000
     48 H16        190.2530   -23.0360   174.1990 ha         1 A1L       0.207000
     49 H17        189.6460   -22.1980   171.6020 ha         1 A1L       0.117000
     50 H18        188.5950   -19.6190   169.4550 hc         1 A1L       0.043033
     51 H19        189.0650   -21.3180   169.4680 hc         1 A1L       0.043033
     52 H20        187.3650   -20.8660   169.3620 hc         1 A1L       0.043033
     53 H21        186.7670   -19.0410   171.3250 ha         1 A1L       0.115000
     54 H22        185.0360   -17.3900   174.0640 h1         1 A1L       0.043033
     55 H23        186.2120   -17.2430   172.7440 h1         1 A1L       0.043033
     56 H24        184.9010   -18.4410   172.6410 h1         1 A1L       0.043033
     57 CAW        190.3680   -22.0250   180.3440 c3         1 A1L       0.150900
     58 NBD        194.4330   -18.0230   180.1580 ns         1 A1L      -0.148000
@<TRIPOS>BOND
     1     1     2 ar  
     2     1     5 ar  
     3     1    16 1   
     4     2     3 ar  
     5     2    20 1   
     6     3     4 ar  
     7     3    19 1   
     8     4    18 ar  
     9     5    18 ar  
    10     6     7 1   
    11     6    33 1   
    12     6    34 1   
    13     6    35 1   
    14     7     8 1   
    15     7    36 1   
    16     7    37 1   
    17     8     9 2   
    18     8    58 1   
    19    10    11 ar  
    20    10    13 ar  
    21    10    58 1   
    22    11    12 ar  
    23    11    39 1   
    24    12    15 ar  
    25    12    40 1   
    26    13    14 ar  
    27    13    41 1   
    28    14    15 ar  
    29    14    42 1   
    30    15    57 1   
    31    16    17 1   
    32    16    57 1   
    33    17    20 2   
    34    18    45 1   
    35    19    46 1   
    36    19    47 1   
    37    20    21 1   
    38    21    22 2   
    39    21    23 1   
    40    22    25 1   
    41    22    48 1   
    42    23    24 1   
    43    24    25 ar  
    44    24    30 ar  
    45    25    26 ar  
    46    26    27 ar  
    47    26    49 1   
    48    27    28 1   
    49    27    29 ar  
    50    28    50 1   
    51    28    51 1   
    52    28    52 1   
    53    29    30 ar  
    54    29    53 1   
    55    30    31 1   
    56    31    32 1   
    57    32    54 1   
    58    32    55 1   
    59    32    56 1   
    60    38    58 1   
    61    43    57 1   
    62    44    57 1   
@<TRIPOS>SUBSTRUCTURE
     1 A1L         1 TEMP              0 ****  ****    0 ROOT
