@<TRIPOS>MOLECULE
A1L
   58    62     1     0     0
SMALL
No Charge or Current Charge


@<TRIPOS>ATOM
      1 C4         190.9750   -22.9210   178.0210 ca         1 A1L       0.154500
      2 C5         190.4350   -23.1620   176.7870 ca         1 A1L      -0.368900
      3 C6         190.8380   -24.3100   176.1010 ca         1 A1L       0.454900
      4 N1         191.8420   -25.0690   176.5610 nb         1 A1L      -0.312000
      5 N3         191.9790   -23.6670   178.5210 nb         1 A1L      -0.234000
      6 CBH        198.6230   -17.7720   180.7250 c3         1 A1L      -0.082100
      7 CBF        197.2960   -17.0870   181.1230 c3         1 A1L      -0.158400
      8 CBE        196.2030   -18.1120   181.4640 c          1 A1L       0.606100
      9 OBG        196.2260   -18.7390   182.5160 o          1 A1L      -0.576100
     10 CBA        194.0370   -19.0270   180.4210 ca         1 A1L      -0.006000
     11 CBB        193.1750   -18.8140   179.3290 ca         1 A1L      -0.156000
     12 CBC        192.0050   -19.5770   179.1760 ca         1 A1L      -0.055000
     13 CAZ        193.7070   -20.0260   181.3620 ca         1 A1L      -0.156000
     14 CAY        192.5360   -20.7900   181.2110 ca         1 A1L      -0.055000
     15 CAX        191.6790   -20.5730   180.1160 ca         1 A1L      -0.144300
     16 NAG        190.2030   -21.9260   178.5930 na         1 A1L      -0.011100
     17 NAH        189.1700   -21.5100   177.7570 nc         1 A1L      -0.514100
     18 C2         192.3910   -24.6890   177.7380 ca         1 A1L       0.197900
     19 NAJ        190.1970   -24.8290   175.0330 nv         1 A1L      -1.061900
     20 CAI        189.3570   -22.1960   176.6200 cd         1 A1L       0.452200
     21 CAK        188.6090   -21.8030   175.4460 cd         1 A1L      -0.079000
     22 CAO        188.9770   -22.1360   174.1480 cc         1 A1L      -0.185200
     23 SAL        187.2120   -20.6880   175.5340 ss         1 A1L       0.160400
     24 CAM        187.0950   -20.7660   173.7610 ca         1 A1L      -0.215000
     25 CAN        188.0770   -21.5490   173.1850 ca         1 A1L      -0.036800
     26 CAS        188.1430   -21.7120   171.7940 ca         1 A1L      -0.112000
     27 CAR        187.1880   -21.0670   170.9800 ca         1 A1L      -0.040300
     28 CAT        187.2350   -21.2320   169.4690 c3         1 A1L      -0.048800
     29 CAQ        186.1830   -20.2710   171.5740 ca         1 A1L      -0.196000
     30 CAP        186.1310   -20.1130   172.9800 ca         1 A1L       0.173100
     31 OAU        185.1740   -19.3450   173.6130 os         1 A1L      -0.338100
     32 CAV        184.1520   -18.6430   172.8840 c3         1 A1L       0.148900
     33 H1         199.3860   -17.0210   180.4880 hc         1 A1L       0.044700
     34 H2         199.0000   -18.3970   181.5440 hc         1 A1L       0.044700
     35 H3         198.4820   -18.4080   179.8420 hc         1 A1L       0.044700
     36 H4         197.4830   -16.4640   182.0060 hc         1 A1L       0.057700
     37 H5         196.9730   -16.4540   180.2870 hc         1 A1L       0.057700
     38 H6         195.3330   -17.6090   179.7080 hn         1 A1L       0.149000
     39 H7         193.4100   -18.0510   178.5910 ha         1 A1L       0.128500
     40 H8         191.3520   -19.3900   178.3260 ha         1 A1L       0.120500
     41 H9         194.3440   -20.2320   182.2160 ha         1 A1L       0.128500
     42 H10        192.3000   -21.5560   181.9470 ha         1 A1L       0.120500
     43 H11        189.5420   -20.7960   180.2350 h1         1 A1L       0.076200
     44 H12        190.4370   -22.2640   180.6460 h1         1 A1L       0.076200
     45 H13        193.2080   -25.3000   178.1180 h5         1 A1L       0.046100
     46 H14        190.4360   -25.7820   174.7760 hn         1 A1L       0.500000
     47 H15        189.2280   -24.5650   174.8830 hn         1 A1L       0.500000
     48 H16        189.8830   -22.6660   173.8780 ha         1 A1L       0.207000
     49 H17        188.9210   -22.3300   171.3520 ha         1 A1L       0.117000
     50 H18        186.9270   -20.3120   168.9580 hc         1 A1L       0.043033
     51 H19        188.2460   -21.4770   169.1230 hc         1 A1L       0.043033
     52 H20        186.5660   -22.0370   169.1440 hc         1 A1L       0.043033
     53 H21        185.4540   -19.7850   170.9320 ha         1 A1L       0.115000
     54 H22        183.5000   -18.0960   173.5750 h1         1 A1L       0.043033
     55 H23        184.5960   -17.9180   172.1900 h1         1 A1L       0.043033
     56 H24        183.5310   -19.3440   172.3110 h1         1 A1L       0.043033
     57 CAW        190.4090   -21.4090   179.9590 c3         1 A1L       0.150900
     58 NBD        195.2040   -18.2190   180.5050 ns         1 A1L      -0.148000
@<TRIPOS>BOND
     1     1     2 ar  
     2     1     5 ar  
     3     1    16 1   
     4     2     3 ar  
     5     2    20 1   
     6     3     4 ar  
     7     3    19 1   
     8     4    18 ar  
     9     5    18 ar  
    10     6     7 1   
    11     6    33 1   
    12     6    34 1   
    13     6    35 1   
    14     7     8 1   
    15     7    36 1   
    16     7    37 1   
    17     8     9 2   
    18     8    58 1   
    19    10    11 ar  
    20    10    13 ar  
    21    10    58 1   
    22    11    12 ar  
    23    11    39 1   
    24    12    15 ar  
    25    12    40 1   
    26    13    14 ar  
    27    13    41 1   
    28    14    15 ar  
    29    14    42 1   
    30    15    57 1   
    31    16    17 1   
    32    16    57 1   
    33    17    20 2   
    34    18    45 1   
    35    19    46 1   
    36    19    47 1   
    37    20    21 1   
    38    21    22 2   
    39    21    23 1   
    40    22    25 1   
    41    22    48 1   
    42    23    24 1   
    43    24    25 ar  
    44    24    30 ar  
    45    25    26 ar  
    46    26    27 ar  
    47    26    49 1   
    48    27    28 1   
    49    27    29 ar  
    50    28    50 1   
    51    28    51 1   
    52    28    52 1   
    53    29    30 ar  
    54    29    53 1   
    55    30    31 1   
    56    31    32 1   
    57    32    54 1   
    58    32    55 1   
    59    32    56 1   
    60    38    58 1   
    61    43    57 1   
    62    44    57 1   
@<TRIPOS>SUBSTRUCTURE
     1 A1L         1 TEMP              0 ****  ****    0 ROOT
