@<TRIPOS>MOLECULE
A1L
   69    71     1     0     0
SMALL
abcg2


@<TRIPOS>ATOM
      1 N1         -23.0680    -1.8080     6.3430 nv         1 A1L      -1.072000
      2 C4         -22.9570    -0.8050     7.2940 ca         1 A1L       0.260000
      3 C5         -21.8160     1.0930     8.2260 ca         1 A1L      -0.088000
      4 C6         -21.9300     0.1570     7.2070 ca         1 A1L      -0.076300
      5 C7         -20.9920     0.1450     6.0270 c3         1 A1L      -0.009100
      6 C8         -19.9930     1.2930     5.9680 c3         1 A1L      -0.210400
      7 C10        -22.4150     3.5010     9.7740 c3         1 A1L       0.175800
      8 C13        -21.8690     0.6460    12.1590 c3         1 A1L      -0.072400
      9 C15        -19.5310    -0.3480    12.4010 c6         1 A1L      -0.073400
     10 C17        -18.4770    -0.8330    13.3910 c6         1 A1L      -0.073400
     11 C21        -24.3360     9.0890     5.0980 ca         1 A1L      -0.136300
     12 C22        -25.4040     8.1880     5.0970 ca         1 A1L      -0.075500
     13 C24        -24.2740     6.7460     6.6630 ca         1 A1L       0.170100
     14 C26        -23.5500     3.9200     8.8510 c3         1 A1L      -0.077400
     15 C1         -23.2010     7.6310     6.6790 ca         1 A1L      -0.168500
     16 C11        -21.5500     1.8590    11.2990 c3         1 A1L       0.180800
     17 C12        -23.2460     8.7850     5.9010 ca         1 A1L      -0.075500
     18 C14        -20.7510     0.2320    13.1200 c6         1 A1L      -0.055700
     19 C16        -20.3220     1.3500    14.0720 c6         1 A1L      -0.073400
     20 C18        -19.2700     0.8670    15.0670 c6         1 A1L      -0.073400
     21 C19        -18.0600     0.2810    14.3460 c6         1 A1L      -0.074400
     22 C2         -23.7120     0.2060     9.3640 ca         1 A1L      -0.081000
     23 C23        -25.3800     7.0370     5.8610 ca         1 A1L      -0.168500
     24 C25        -23.2390     5.2520     8.2000 c3         1 A1L       0.154600
     25 C27        -22.6970     1.1510     9.3030 ca         1 A1L       0.177000
     26 C3         -23.8320    -0.7640     8.3800 ca         1 A1L      -0.189000
     27 C9         -20.6350     2.6840     5.7660 c          1 A1L       0.713000
     28 N2         -22.5890     2.1570    10.3130 nh         1 A1L      -0.758400
     29 O1         -24.3370     5.6030     7.3760 os         1 A1L      -0.343100
     30 O2         -20.1450     3.6350     6.4140 o          1 A1L      -0.741000
     31 O3         -21.5720     2.7480     4.9470 o          1 A1L      -0.741000
     32 H1         -23.9680    -2.2600     6.3150 hn         1 A1L       0.433500
     33 H2         -22.7660    -1.5620     5.4130 hn         1 A1L       0.433500
     34 H3         -21.0230     1.8270     8.1630 ha         1 A1L       0.150000
     35 H4         -21.5760     0.1610     5.1000 hc         1 A1L       0.031200
     36 H5         -20.4520    -0.8090     6.0130 hc         1 A1L       0.031200
     37 H6         -19.3290     1.1100     5.1150 hc         1 A1L       0.019700
     38 H7         -19.3490     1.2890     6.8500 hc         1 A1L       0.019700
     39 H8         -21.4540     3.6160     9.2460 h1         1 A1L       0.037700
     40 H9         -22.3730     4.1910    10.6210 h1         1 A1L       0.037700
     41 H10        -22.7780     0.8560    12.7310 hc         1 A1L       0.047700
     42 H11        -22.1000    -0.2100    11.5190 hc         1 A1L       0.047700
     43 H12        -19.8420    -1.1700    11.7490 hc         1 A1L       0.043450
     44 H13        -19.0830     0.4110    11.7500 hc         1 A1L       0.043450
     45 H14        -18.8820    -1.6710    13.9690 hc         1 A1L       0.031450
     46 H15        -17.6060    -1.2190    12.8550 hc         1 A1L       0.031450
     47 H16        -25.2640    10.9280     4.4600 hc         1 A1L       0.029367
     48 H17        -23.5040    10.9620     4.4350 hc         1 A1L       0.029367
     49 H18        -24.3900    10.0900     3.1910 hc         1 A1L       0.029367
     50 H20        -24.4800     3.9810     9.4210 hc         1 A1L       0.063700
     51 H21        -23.6950     3.1730     8.0680 hc         1 A1L       0.063700
     52 H22        -22.3250     7.4450     7.2850 ha         1 A1L       0.123000
     53 H23        -20.5690     1.7360    10.8120 h1         1 A1L       0.029200
     54 H24        -21.4610     2.7380    11.9420 h1         1 A1L       0.029200
     55 H25        -22.3990     9.4600     5.9300 ha         1 A1L       0.099000
     56 H26        -21.1630    -0.5750    13.7400 hc         1 A1L       0.034700
     57 H27        -19.9060     2.1860    13.5000 hc         1 A1L       0.043450
     58 H28        -21.1950     1.7420    14.6040 hc         1 A1L       0.043450
     59 H29        -18.9620     1.6900    15.7170 hc         1 A1L       0.031450
     60 H30        -19.7090     0.1040    15.7180 hc         1 A1L       0.031450
     61 H31        -17.3290    -0.0890    15.0680 hc         1 A1L       0.034200
     62 H32        -17.5630     1.0740    13.7760 hc         1 A1L       0.034200
     63 H33        -24.4180     0.2350    10.1850 ha         1 A1L       0.103000
     64 H34        -26.2200     6.3530     5.8440 ha         1 A1L       0.123000
     65 H35        -22.3250     5.1670     7.6000 h1         1 A1L       0.050200
     66 H36        -23.0680     6.0250     8.9580 h1         1 A1L       0.050200
     67 H37        -24.6320    -1.4940     8.4470 ha         1 A1L       0.092000
     68 C20        -24.3740    10.3310     4.2550 c3         1 A1L      -0.029800
     69 H19        -26.2740     8.3910     4.4830 ha         1 A1L       0.099000
@<TRIPOS>BOND
     1     1     2 1   
     2     1    32 1   
     3     1    33 1   
     4     2     4 ar  
     5     2    26 ar  
     6     3     4 ar  
     7     3    25 ar  
     8     3    34 1   
     9     4     5 1   
    10     5     6 1   
    11     5    35 1   
    12     5    36 1   
    13     6    27 1   
    14     6    37 1   
    15     6    38 1   
    16     7    14 1   
    17     7    28 1   
    18     7    39 1   
    19     7    40 1   
    20     8    16 1   
    21     8    18 1   
    22     8    41 1   
    23     8    42 1   
    24     9    10 1   
    25     9    18 1   
    26     9    43 1   
    27     9    44 1   
    28    10    21 1   
    29    10    45 1   
    30    10    46 1   
    31    11    12 ar  
    32    11    17 ar  
    33    11    68 1   
    34    12    23 ar  
    35    12    69 1   
    36    13    15 ar  
    37    13    23 ar  
    38    13    29 1   
    39    14    24 1   
    40    14    50 1   
    41    14    51 1   
    42    15    17 ar  
    43    15    52 1   
    44    16    28 1   
    45    16    53 1   
    46    16    54 1   
    47    17    55 1   
    48    18    19 1   
    49    18    56 1   
    50    19    20 1   
    51    19    57 1   
    52    19    58 1   
    53    20    21 1   
    54    20    59 1   
    55    20    60 1   
    56    21    61 1   
    57    21    62 1   
    58    22    25 ar  
    59    22    26 ar  
    60    22    63 1   
    61    23    64 1   
    62    24    29 1   
    63    24    65 1   
    64    24    66 1   
    65    25    28 1   
    66    26    67 1   
    67    27    30 1   
    68    27    31 1   
    69    47    68 1   
    70    48    68 1   
    71    49    68 1   
@<TRIPOS>SUBSTRUCTURE
     1 A1L         1 TEMP              0 ****  ****    0 ROOT
