@<TRIPOS>MOLECULE
A1L
   17    17     1     0     0
SMALL
No Charge or Current Charge


@<TRIPOS>ATOM
      1 C1          28.6800    12.5600    19.4810 c          1 A1L       0.714000
      2 C2          27.8180    11.9250    20.6930 c5         1 A1L       0.228000
      3 C3          26.3390    12.4610    20.6010 c5         1 A1L      -0.082400
      4 C4          26.0870    13.1510    21.9750 c5         1 A1L       0.132300
      5 C5          27.1410    12.4230    22.8570 c5         1 A1L       0.127600
      6 O1A         28.4920    12.1230    18.3490 o          1 A1L      -0.699500
      7 O1B         29.5680    13.3780    19.7020 o          1 A1L      -0.699500
      8 O2          27.8360    10.4850    20.6610 oh         1 A1L      -0.720000
      9 O4          26.2950    14.5670    21.9000 oh         1 A1L      -0.690000
     10 O5          28.2880    12.3550    21.9940 os         1 A1L      -0.441000
     11 H1          26.1930    13.1540    19.7650 hc         1 A1L       0.057200
     12 H2          25.6280    11.6420    20.4450 hc         1 A1L       0.057200
     13 H3          25.0680    12.9510    22.3340 h1         1 A1L       0.007700
     14 H4          26.8220    11.4050    23.1210 h1         1 A1L       0.022700
     15 H5          27.3910    12.9680    23.7770 h1         1 A1L       0.022700
     16 H7          27.8370    10.2490    19.7040 ho         1 A1L       0.489000
     17 H8          26.2480    14.9120    22.8200 ho         1 A1L       0.474000
@<TRIPOS>BOND
     1     1     2 1   
     2     1     6 1   
     3     1     7 1   
     4     2     3 1   
     5     2     8 1   
     6     2    10 1   
     7     3     4 1   
     8     3    11 1   
     9     3    12 1   
    10     4     5 1   
    11     4     9 1   
    12     4    13 1   
    13     5    10 1   
    14     5    14 1   
    15     5    15 1   
    16     8    16 1   
    17     9    17 1   
@<TRIPOS>SUBSTRUCTURE
     1 A1L         1 TEMP              0 ****  ****    0 ROOT
