@<TRIPOS>MOLECULE
A1L
   38    40     1     0     0
SMALL
abcg2


@<TRIPOS>ATOM
      1 C10        114.0900   116.3720   136.7340 ca         1 A1L      -0.110000
      2 C13        117.3650   117.5980   138.1890 c3         1 A1L       0.212100
      3 C15        117.0400   120.2390   133.4010 ca         1 A1L      -0.088000
      4 C17        118.3070   118.8880   131.8660 ca         1 A1L      -0.104000
      5 C01        116.3060   118.0860   140.3060 c3         1 A1L       0.147100
      6 C03        116.7930   119.8920   138.8460 c3         1 A1L       0.130800
      7 C04        117.7250   120.5420   137.8410 c3         1 A1L       0.161600
      8 C06        116.8030   119.6130   135.8350 c3         1 A1L       0.265900
      9 C07        115.8950   118.4610   136.2590 ca         1 A1L      -0.095300
     10 C08        114.7040   118.3520   135.5390 ca         1 A1L      -0.108000
     11 C09        113.8050   117.3250   135.7650 ca         1 A1L      -0.107000
     12 C11        115.2600   116.4840   137.4660 ca         1 A1L      -0.109000
     13 C12        116.1780   117.5160   137.2530 ca         1 A1L      -0.097300
     14 C14        117.3230   119.3580   134.4360 ca         1 A1L      -0.081300
     15 C16        117.5250   120.0060   132.1190 ca         1 A1L      -0.115500
     16 C18        118.5980   118.0040   132.9000 ca         1 A1L      -0.115500
     17 C19        118.1070   118.2360   134.1750 ca         1 A1L      -0.088000
     18 N02        117.2010   118.5690   139.2740 n3         1 A1L      -0.706600
     19 O05        117.9310   119.8310   136.6400 os         1 A1L      -0.445000
     20 H1         113.4040   115.5560   136.9230 ha         1 A1L       0.113000
     21 H2         117.5030   116.6210   138.6560 h1         1 A1L       0.064700
     22 H3         118.2860   117.8020   137.6500 h1         1 A1L       0.064700
     23 H5         118.6870   118.7040   130.8700 ha         1 A1L       0.111000
     24 H6         116.3110   118.7790   141.1490 h1         1 A1L       0.031033
     25 H7         115.2610   117.9780   139.9770 h1         1 A1L       0.031033
     26 H8         116.6420   117.1150   140.6730 h1         1 A1L       0.031033
     27 H9         116.7940   120.5450   139.7240 h1         1 A1L       0.037200
     28 H10        115.7570   119.9120   138.4700 h1         1 A1L       0.037200
     29 H11        118.7170   120.6560   138.2830 h1         1 A1L       0.050700
     30 H12        117.3390   121.5480   137.6270 h1         1 A1L       0.050700
     31 H13        116.1840   120.5240   135.8080 h1         1 A1L       0.041700
     32 H14        114.4800   119.0910   134.7770 ha         1 A1L       0.112000
     33 H15        112.8900   117.2670   135.1890 ha         1 A1L       0.113000
     34 H16        115.4780   115.7460   138.2300 ha         1 A1L       0.109000
     35 H17        117.2920   120.6990   131.3210 ha         1 A1L       0.112000
     36 H18        119.2070   117.1300   132.7080 ha         1 A1L       0.112000
     37 H19        118.3280   117.5310   134.9690 ha         1 A1L       0.115000
     38 H4         116.4310   121.1150   133.5940 ha         1 A1L       0.115000
@<TRIPOS>BOND
     1     1    11 ar  
     2     1    12 ar  
     3     1    20 1   
     4     2    13 1   
     5     2    18 1   
     6     2    21 1   
     7     2    22 1   
     8     3    14 ar  
     9     3    15 ar  
    10     3    38 1   
    11     4    15 ar  
    12     4    16 ar  
    13     4    23 1   
    14     5    18 1   
    15     5    24 1   
    16     5    25 1   
    17     5    26 1   
    18     6     7 1   
    19     6    18 1   
    20     6    27 1   
    21     6    28 1   
    22     7    19 1   
    23     7    29 1   
    24     7    30 1   
    25     8     9 1   
    26     8    14 1   
    27     8    19 1   
    28     8    31 1   
    29     9    10 ar  
    30     9    13 ar  
    31    10    11 ar  
    32    10    32 1   
    33    11    33 1   
    34    12    13 ar  
    35    12    34 1   
    36    14    17 ar  
    37    15    35 1   
    38    16    17 ar  
    39    16    36 1   
    40    17    37 1   
@<TRIPOS>SUBSTRUCTURE
     1 A1L         1 TEMP              0 ****  ****    0 ROOT
