@<TRIPOS>MOLECULE
A1L
   18    18     1     0     0
SMALL
No Charge or Current Charge


@<TRIPOS>ATOM
      1 C01         15.4810   161.2620     0.8430 c3         1 A1L      -0.018800
      2 C02         16.6930   161.8620     1.5500 ca         1 A1L      -0.144300
      3 C03         17.7330   161.0410     2.0310 ca         1 A1L       0.099100
      4 C04         18.8370   161.6090     2.6780 ca         1 A1L      -0.232000
      5 C05         18.9180   163.0010     2.8540 ca         1 A1L      -0.054000
      6 C06         17.8880   163.8460     2.3810 ca         1 A1L      -0.161600
      7 C07         16.7780   163.2590     1.7290 ca         1 A1L      -0.054000
      8 C08         17.9720   165.3510     2.5690 c          1 A1L       0.716600
      9 O09         18.9490   165.8170     3.1380 o          1 A1L      -0.724000
     10 O10         17.0590   166.0460     2.1440 o          1 A1L      -0.724000
     11 O11         17.6830   159.6880     1.8760 oh         1 A1L      -0.557100
     12 H1          15.7830   160.7130    -0.0570 hc         1 A1L       0.025033
     13 H2          14.9480   160.5640     1.4990 hc         1 A1L       0.025033
     14 H3          14.7650   162.0320     0.5320 hc         1 A1L       0.025033
     15 H4          19.6410   160.9790     3.0500 ha         1 A1L       0.084000
     16 H5          19.7860   163.4210     3.3590 ha         1 A1L       0.125000
     17 H6          15.9740   163.8910     1.3570 ha         1 A1L       0.127000
     18 H8          18.4930   159.3060     2.2750 ho         1 A1L       0.442000
@<TRIPOS>BOND
     1     1     2 1   
     2     1    12 1   
     3     1    13 1   
     4     1    14 1   
     5     2     3 ar  
     6     2     7 ar  
     7     3     4 ar  
     8     3    11 1   
     9     4     5 ar  
    10     4    15 1   
    11     5     6 ar  
    12     5    16 1   
    13     6     7 ar  
    14     6     8 1   
    15     7    17 1   
    16     8     9 1   
    17     8    10 1   
    18    11    18 1   
@<TRIPOS>SUBSTRUCTURE
     1 A1L         1 TEMP              0 ****  ****    0 ROOT
