@<TRIPOS>MOLECULE
A1L
   44    47     1     0     0
SMALL
No Charge or Current Charge


@<TRIPOS>ATOM
      1 C10        125.3260    97.3460   124.0700 ca         1 A1L      -0.076300
      2 C13        127.3240    96.4460   122.3280 ca         1 A1L      -0.111500
      3 C15        125.2200    96.0620   123.4930 ca         1 A1L      -0.067800
      4 C17        121.9520    98.5620   123.7870 ca         1 A1L      -0.097500
      5 C20        121.6990    95.9900   122.6320 ca         1 A1L      -0.098500
      6 C21        122.7800    96.2730   123.4930 ca         1 A1L      -0.067800
      7 C01        125.5750    89.1650   122.7700 c3         1 A1L       0.144100
      8 C03        124.6430    91.4650   122.9520 c3         1 A1L       0.154800
      9 C05        123.7720    93.8690   123.2580 c3         1 A1L      -0.061400
     10 C06        123.9240    95.2990   123.8890 c6         1 A1L       0.049600
     11 C07        123.9090    95.2570   125.4620 c6         1 A1L      -0.065400
     12 C08        124.0270    96.6990   126.0780 c6         1 A1L      -0.065400
     13 C09        124.1340    97.7560   124.9440 c6         1 A1L       0.024900
     14 C11        126.4260    98.1750   123.7960 ca         1 A1L      -0.097500
     15 C12        127.4320    97.7150   122.9290 ca         1 A1L      -0.111000
     16 C14        126.2170    95.6200   122.5980 ca         1 A1L      -0.098500
     17 C16        122.8990    97.5610   124.0590 ca         1 A1L      -0.076300
     18 C18        120.8700    98.2700   122.9380 ca         1 A1L      -0.111000
     19 C19        120.7460    96.9910   122.3620 ca         1 A1L      -0.111500
     20 N02        125.5700    90.4530   123.4900 n7         1 A1L      -0.857400
     21 H1         128.0980    96.1040   121.6440 ha         1 A1L       0.111000
     22 H2         122.0550    99.5520   124.2250 ha         1 A1L       0.111500
     23 H3         121.5860    95.0140   122.1680 ha         1 A1L       0.114000
     24 H4         126.2950    88.4710   123.2260 h1         1 A1L       0.028700
     25 H5         124.5830    88.6950   122.8000 h1         1 A1L       0.028700
     26 H6         125.8580    89.3060   121.7180 h1         1 A1L       0.028700
     27 H7         123.6090    91.0940   122.9880 h1         1 A1L       0.027200
     28 H8         124.8860    91.6830   121.9020 h1         1 A1L       0.027200
     29 H9         124.5040    92.5420   124.8160 hc         1 A1L       0.050200
     30 H10        125.7740    93.1290   123.7500 hc         1 A1L       0.050200
     31 H11        123.8630    93.9450   122.1670 hc         1 A1L       0.044200
     32 H12        122.7560    93.5020   123.4480 hc         1 A1L       0.044200
     33 H13        122.9860    94.7760   125.8160 hc         1 A1L       0.047200
     34 H14        124.7420    94.6460   125.8360 hc         1 A1L       0.047200
     35 H16        124.9080    96.7600   126.7320 hc         1 A1L       0.047200
     36 H17        123.1530    96.9130   126.7090 hc         1 A1L       0.047200
     37 H19        124.2230    98.7810   125.3320 hc         1 A1L       0.066700
     38 H20        126.4960    99.1640   124.2410 ha         1 A1L       0.111500
     39 H21        128.2890    98.3480   122.7090 ha         1 A1L       0.111500
     40 H22        126.1450    94.6560   122.1030 ha         1 A1L       0.114000
     41 H23        120.1300    99.0370   122.7200 ha         1 A1L       0.111500
     42 H24        119.9090    96.7750   121.7010 ha         1 A1L       0.111000
     43 H25        125.3110    90.2710   124.4680 hn         1 A1L       0.404000
     44 C04        124.7400    92.7680   123.7700 c3         1 A1L      -0.082400
@<TRIPOS>BOND
     1     1     3 ar  
     2     1    13 1   
     3     1    14 ar  
     4     2    15 ar  
     5     2    16 ar  
     6     2    21 1   
     7     3    10 1   
     8     3    16 ar  
     9     4    17 ar  
    10     4    18 ar  
    11     4    22 1   
    12     5     6 ar  
    13     5    19 ar  
    14     5    23 1   
    15     6    10 1   
    16     6    17 ar  
    17     7    20 1   
    18     7    24 1   
    19     7    25 1   
    20     7    26 1   
    21     8    20 1   
    22     8    27 1   
    23     8    28 1   
    24     8    44 1   
    25     9    10 1   
    26     9    31 1   
    27     9    32 1   
    28     9    44 1   
    29    10    11 1   
    30    11    12 1   
    31    11    33 1   
    32    11    34 1   
    33    12    13 1   
    34    12    35 1   
    35    12    36 1   
    36    13    17 1   
    37    13    37 1   
    38    14    15 ar  
    39    14    38 1   
    40    15    39 1   
    41    16    40 1   
    42    18    19 ar  
    43    18    41 1   
    44    19    42 1   
    45    20    43 1   
    46    29    44 1   
    47    30    44 1   
@<TRIPOS>SUBSTRUCTURE
     1 A1L         1 TEMP              0 ****  ****    0 ROOT
