@<TRIPOS>MOLECULE
A1L
   58    57     1     0     0
SMALL
No Charge or Current Charge


@<TRIPOS>ATOM
      1 C01        -29.1960    42.7140    13.5690 c3         1 A1L      -0.088100
      2 C02        -28.8050    41.2250    13.5080 c3         1 A1L      -0.076400
      3 C03        -28.0210    40.8570    12.2290 c3         1 A1L      -0.076400
      4 C04        -27.6330    39.3610    12.1700 c3         1 A1L      -0.073400
      5 C05        -26.7700    38.9700    10.9450 c3         1 A1L      -0.073400
      6 C06        -27.4900    39.1080     9.5830 c3         1 A1L      -0.072400
      7 C07        -26.6290    38.6270     8.3950 c3         1 A1L      -0.080400
      8 C08        -27.3450    38.7670     7.0340 c3         1 A1L      -0.068400
      9 C09        -26.4830    38.2850     5.8470 c3         1 A1L      -0.087400
     10 C10        -27.2020    38.4290     4.4840 c3         1 A1L      -0.073400
     11 C11        -26.3830    37.8980     3.2880 c3         1 A1L      -0.093400
     12 C12        -25.0810    38.6910     3.0390 c3         1 A1L       0.102600
     13 C14        -24.9070    38.3140     0.5590 c3         1 A1L       0.075900
     14 C15        -22.9380    39.1390     1.8340 c3         1 A1L       0.075900
     15 C16        -23.7120    36.7630     2.1090 c3         1 A1L       0.097600
     16 C17        -22.9590    36.4260     3.4150 c3         1 A1L      -0.084400
     17 C18        -22.5690    34.9310     3.5010 c3         1 A1L      -0.216400
     18 C19        -21.8200    34.6490     4.8130 c          1 A1L       0.722000
     19 N13        -24.1640    38.2180     1.8990 n4         1 A1L      -0.500000
     20 O20        -20.6060    34.7870     4.8210 o          1 A1L      -0.709000
     21 O21        -22.4780    34.3520     5.7980 o          1 A1L      -0.709000
     22 H1         -29.7490    42.9270    14.4920 hc         1 A1L       0.030033
     23 H2         -28.3040    43.3510    13.5490 hc         1 A1L       0.030033
     24 H3         -29.8340    42.9830    12.7180 hc         1 A1L       0.030033
     25 H4         -29.7150    40.6150    13.5650 hc         1 A1L       0.036700
     26 H5         -28.2000    40.9800    14.3900 hc         1 A1L       0.036700
     27 H6         -27.1120    41.4690    12.1760 hc         1 A1L       0.035700
     28 H7         -28.6330    41.1130    11.3560 hc         1 A1L       0.035700
     29 H8         -28.5420    38.7480    12.1810 hc         1 A1L       0.037700
     30 H9         -27.0740    39.1070    13.0790 hc         1 A1L       0.037700
     31 H10        -26.4490    37.9290    11.0700 hc         1 A1L       0.044200
     32 H11        -25.8570    39.5790    10.9380 hc         1 A1L       0.044200
     33 H12        -27.7640    40.1570     9.4160 hc         1 A1L       0.033200
     34 H13        -28.4230    38.5310     9.6090 hc         1 A1L       0.033200
     35 H14        -26.3540    37.5760     8.5510 hc         1 A1L       0.051200
     36 H15        -25.6940    39.2010     8.3720 hc         1 A1L       0.051200
     37 H16        -27.6180    39.8180     6.8780 hc         1 A1L       0.032700
     38 H17        -28.2790    38.1920     7.0580 hc         1 A1L       0.032700
     39 H18        -26.2120    37.2330     6.0020 hc         1 A1L       0.055700
     40 H19        -25.5480    38.8590     5.8330 hc         1 A1L       0.055700
     41 H20        -27.4510    39.4840     4.3120 hc         1 A1L       0.048700
     42 H21        -28.1530    37.8840     4.5250 hc         1 A1L       0.048700
     43 H22        -27.0090    37.9420     2.3880 hc         1 A1L       0.061700
     44 H23        -26.1480    36.8410     3.4590 hc         1 A1L       0.061700
     45 H24        -24.4860    38.6740     3.9550 hx         1 A1L       0.089200
     46 H25        -25.3440    39.7310     2.8370 hx         1 A1L       0.089200
     47 H26        -25.7700    37.6460     0.5760 hx         1 A1L       0.087367
     48 H27        -25.2390    39.3430     0.4060 hx         1 A1L       0.087367
     49 H28        -24.2320    38.0200    -0.2470 hx         1 A1L       0.087367
     50 H29        -22.4090    39.1020     2.7880 hx         1 A1L       0.087367
     51 H30        -22.2780    38.8020     1.0330 hx         1 A1L       0.087367
     52 H31        -23.2670    40.1610     1.6370 hx         1 A1L       0.087367
     53 H32        -24.6040    36.1360     2.0560 hx         1 A1L       0.077700
     54 H33        -23.0710    36.4990     1.2650 hx         1 A1L       0.077700
     55 H34        -22.0530    37.0390     3.4830 hc         1 A1L       0.064700
     56 H35        -23.5870    36.6820     4.2760 hc         1 A1L       0.064700
     57 H36        -23.5130    34.3720     3.4720 hc         1 A1L       0.028200
     58 H37        -21.9160    34.7410     2.6400 hc         1 A1L       0.028200
@<TRIPOS>BOND
     1     1     2 1   
     2     1    22 1   
     3     1    23 1   
     4     1    24 1   
     5     2     3 1   
     6     2    25 1   
     7     2    26 1   
     8     3     4 1   
     9     3    27 1   
    10     3    28 1   
    11     4     5 1   
    12     4    29 1   
    13     4    30 1   
    14     5     6 1   
    15     5    31 1   
    16     5    32 1   
    17     6     7 1   
    18     6    33 1   
    19     6    34 1   
    20     7     8 1   
    21     7    35 1   
    22     7    36 1   
    23     8     9 1   
    24     8    37 1   
    25     8    38 1   
    26     9    10 1   
    27     9    39 1   
    28     9    40 1   
    29    10    11 1   
    30    10    41 1   
    31    10    42 1   
    32    11    12 1   
    33    11    43 1   
    34    11    44 1   
    35    12    19 1   
    36    12    45 1   
    37    12    46 1   
    38    13    19 1   
    39    13    47 1   
    40    13    48 1   
    41    13    49 1   
    42    14    19 1   
    43    14    50 1   
    44    14    51 1   
    45    14    52 1   
    46    15    16 1   
    47    15    19 1   
    48    15    53 1   
    49    15    54 1   
    50    16    17 1   
    51    16    55 1   
    52    16    56 1   
    53    17    18 1   
    54    17    57 1   
    55    17    58 1   
    56    18    20 1   
    57    18    21 1   
@<TRIPOS>SUBSTRUCTURE
     1 A1L         1 TEMP              0 ****  ****    0 ROOT
