@<TRIPOS>MOLECULE
A1L
   18    18     1     0     0
SMALL
No Charge or Current Charge


@<TRIPOS>ATOM
      1 O4          38.5330   -10.2160    20.0060 o          1 A1L      -0.559100
      2 C4          37.6570   -11.0020    19.6580 c          1 A1L       0.563100
      3 C3          37.1500   -11.2600    18.2450 c5         1 A1L      -0.201400
      4 C5          36.5610   -11.6260    20.5550 c5         1 A1L       0.056300
      5 C6          37.0340   -12.9080    21.2730 c3         1 A1L      -0.078100
      6 O5          35.4490   -11.9490    19.6750 os         1 A1L      -0.446000
      7 C2          35.6150   -11.1910    18.4460 c5         1 A1L       0.230000
      8 O2          35.1930    -9.8360    18.6660 oh         1 A1L      -0.711000
      9 C1          34.8680   -11.8650    17.1790 c          1 A1L       0.723000
     10 O1A         34.7620   -11.2010    16.1520 o          1 A1L      -0.696500
     11 O1B         34.3450   -12.9710    17.2770 o          1 A1L      -0.696500
     12 H1          37.4040   -12.2880    17.9670 hc         1 A1L       0.086200
     13 H2          37.5660   -10.5520    17.5220 hc         1 A1L       0.086200
     14 H3          36.2380   -10.8730    21.2860 h1         1 A1L       0.049700
     15 H4          36.2330   -13.3310    21.8910 hc         1 A1L       0.035367
     16 H5          37.3500   -13.6740    20.5540 hc         1 A1L       0.035367
     17 H6          37.8850   -12.6950    21.9320 hc         1 A1L       0.035367
     18 H7          34.9700    -9.4860    17.7720 ho         1 A1L       0.490000
@<TRIPOS>BOND
     1     1     2 2   
     2     2     3 1   
     3     2     4 1   
     4     3     7 1   
     5     3    12 1   
     6     3    13 1   
     7     4     5 1   
     8     4     6 1   
     9     4    14 1   
    10     5    15 1   
    11     5    16 1   
    12     5    17 1   
    13     6     7 1   
    14     7     8 1   
    15     7     9 1   
    16     8    18 1   
    17     9    10 1   
    18     9    11 1   
@<TRIPOS>SUBSTRUCTURE
     1 A1L         1 TEMP              0 ****  ****    0 ROOT
