@<TRIPOS>MOLECULE
A1L
   44    47     1     0     0
SMALL
abcg2


@<TRIPOS>ATOM
      1 C10        125.3210    97.3160   124.0340 ca         1 A1L      -0.076300
      2 C13        127.3260    96.3880   122.3650 ca         1 A1L      -0.111500
      3 C15        125.2130    96.0420   123.4650 ca         1 A1L      -0.067800
      4 C17        121.9470    98.4820   123.7870 ca         1 A1L      -0.097500
      5 C20        121.7130    95.9400   122.6700 ca         1 A1L      -0.098500
      6 C21        122.8030    96.2420   123.4710 ca         1 A1L      -0.067800
      7 C01        125.4910    89.3080   122.7780 c3         1 A1L       0.144100
      8 C03        124.6820    91.5700   122.9840 c3         1 A1L       0.154800
      9 C05        123.7980    93.9100   123.2550 c3         1 A1L      -0.061400
     10 C06        123.9400    95.3060   123.8560 c6         1 A1L       0.049600
     11 C07        123.9320    95.2580   125.4130 c6         1 A1L      -0.065400
     12 C08        124.0350    96.6690   126.0180 c6         1 A1L      -0.065400
     13 C09        124.1390    97.7060   124.8770 c6         1 A1L       0.024900
     14 C11        126.4290    98.1080   123.7870 ca         1 A1L      -0.097500
     15 C12        127.4390    97.6390   122.9510 ca         1 A1L      -0.111000
     16 C14        126.2140    95.5880   122.6200 ca         1 A1L      -0.098500
     17 C16        122.9150    97.5220   124.0240 ca         1 A1L      -0.076300
     18 C18        120.8550    98.1740   122.9790 ca         1 A1L      -0.111000
     19 C19        120.7430    96.9090   122.4220 ca         1 A1L      -0.111500
     20 N02        125.5540    90.5460   123.5260 n7         1 A1L      -0.857400
     21 H1         128.1020    96.0270   121.7020 ha         1 A1L       0.111000
     22 H2         122.0430    99.4690   124.2250 ha         1 A1L       0.111500
     23 H3         121.6030    94.9590   122.2260 ha         1 A1L       0.114000
     24 H4         126.1090    88.5500   123.2600 h1         1 A1L       0.028700
     25 H5         124.4770    88.8970   122.6700 h1         1 A1L       0.028700
     26 H6         125.8870    89.4610   121.7720 h1         1 A1L       0.028700
     27 H7         123.6330    91.2360   122.9100 h1         1 A1L       0.027200
     28 H8         125.0020    91.7840   121.9590 h1         1 A1L       0.027200
     29 H9         124.4760    92.6170   124.8410 hc         1 A1L       0.050200
     30 H10        125.7790    93.2020   123.8330 hc         1 A1L       0.050200
     31 H11        123.9100    93.9760   122.1670 hc         1 A1L       0.044200
     32 H12        122.7750    93.5620   123.4270 hc         1 A1L       0.044200
     33 H13        123.0170    94.7560   125.7360 hc         1 A1L       0.047200
     34 H14        124.7660    94.6440   125.7530 hc         1 A1L       0.047200
     35 H16        124.9130    96.7530   126.6600 hc         1 A1L       0.047200
     36 H17        123.1650    96.8990   126.6350 hc         1 A1L       0.047200
     37 H19        124.2250    98.7220   125.2650 hc         1 A1L       0.066700
     38 H20        126.5020    99.0920   124.2360 ha         1 A1L       0.111500
     39 H21        128.3050    98.2570   122.7510 ha         1 A1L       0.111500
     40 H22        126.1450    94.6190   122.1420 ha         1 A1L       0.114000
     41 H23        120.0980    98.9230   122.7840 ha         1 A1L       0.111500
     42 H24        119.8970    96.6690   121.7900 ha         1 A1L       0.111000
     43 H25        125.2820    90.3630   124.4840 hn         1 A1L       0.404000
     44 C04        124.7460    92.8470   123.8060 c3         1 A1L      -0.082400
@<TRIPOS>BOND
     1     1     3 ar  
     2     1    13 1   
     3     1    14 ar  
     4     2    15 ar  
     5     2    16 ar  
     6     2    21 1   
     7     3    10 1   
     8     3    16 ar  
     9     4    17 ar  
    10     4    18 ar  
    11     4    22 1   
    12     5     6 ar  
    13     5    19 ar  
    14     5    23 1   
    15     6    10 1   
    16     6    17 ar  
    17     7    20 1   
    18     7    24 1   
    19     7    25 1   
    20     7    26 1   
    21     8    20 1   
    22     8    27 1   
    23     8    28 1   
    24     8    44 1   
    25     9    10 1   
    26     9    31 1   
    27     9    32 1   
    28     9    44 1   
    29    10    11 1   
    30    11    12 1   
    31    11    33 1   
    32    11    34 1   
    33    12    13 1   
    34    12    35 1   
    35    12    36 1   
    36    13    17 1   
    37    13    37 1   
    38    14    15 ar  
    39    14    38 1   
    40    15    39 1   
    41    16    40 1   
    42    18    19 ar  
    43    18    41 1   
    44    19    42 1   
    45    20    43 1   
    46    29    44 1   
    47    30    44 1   
@<TRIPOS>SUBSTRUCTURE
     1 A1L         1 TEMP              0 ****  ****    0 ROOT
