@<TRIPOS>MOLECULE
A1L
   40    41     1     0     0
SMALL
No Charge or Current Charge


@<TRIPOS>ATOM
      1 C10        111.9460    91.6760   113.1380 c3         1 A1L      -0.066400
      2 N12        112.5560    89.3320   113.8050 n7         1 A1L      -0.865400
      3 C13        111.4070    88.9620   114.6590 c3         1 A1L       0.143100
      4 C15        113.5980    93.7010   110.9730 ca         1 A1L      -0.095500
      5 C17        116.0210    93.9350   110.9140 ca         1 A1L      -0.105000
      6 C02        112.8280    95.2400   116.2050 ca         1 A1L      -0.109300
      7 C03        112.9720    96.5820   116.6110 ca         1 A1L      -0.080000
      8 C04        112.8620    97.6220   115.6750 ca         1 A1L      -0.145000
      9 C05        112.6070    97.3310   114.3260 ca         1 A1L      -0.078000
     10 C06        112.4610    95.9970   113.9110 ca         1 A1L      -0.188000
     11 C07        112.5730    94.9440   114.8470 ca         1 A1L       0.141100
     12 O08        112.4350    93.6150   114.4850 os         1 A1L      -0.350100
     13 C09        112.3340    93.1720   113.1160 c3         1 A1L       0.222600
     14 C11        112.9680    90.7550   113.8480 c3         1 A1L       0.161800
     15 C14        113.6430    93.4380   112.3580 ca         1 A1L      -0.120300
     16 C16        114.7810    93.9490   110.2550 ca         1 A1L      -0.111000
     17 C18        116.0770    93.6720   112.2930 ca         1 A1L      -0.111000
     18 C19        114.8950    93.4240   113.0120 ca         1 A1L      -0.095500
     19 H1         110.9680    91.5880   113.6240 hc         1 A1L       0.058700
     20 H2         111.8140    91.3340   112.1040 hc         1 A1L       0.058700
     21 H4         113.3590    88.7690   114.1150 hn         1 A1L       0.409000
     22 H5         111.2140    87.8830   114.5950 h1         1 A1L       0.028367
     23 H6         111.6040    89.2100   115.7110 h1         1 A1L       0.028367
     24 H7         110.4920    89.4830   114.3480 h1         1 A1L       0.028367
     25 H8         112.6430    93.7140   110.4510 ha         1 A1L       0.117000
     26 H9         116.9360    94.1270   110.3580 ha         1 A1L       0.113000
     27 H10        113.7690    93.4350   116.9680 hc         1 A1L       0.040033
     28 H11        113.1590    94.5060   118.2370 hc         1 A1L       0.040033
     29 H12        112.0280    93.5330   117.2870 hc         1 A1L       0.040033
     30 H14        112.9750    98.6560   115.9960 ha         1 A1L       0.114000
     31 H15        112.5210    98.1390   113.6030 ha         1 A1L       0.110000
     32 H16        112.2610    95.8030   112.8620 ha         1 A1L       0.121000
     33 H17        111.5170    93.7080   112.6140 h1         1 A1L       0.049700
     34 H18        113.9370    90.8620   113.3410 h1         1 A1L       0.037700
     35 H19        113.1060    91.0860   114.8870 h1         1 A1L       0.037700
     36 H20        114.7350    94.1520   109.1870 ha         1 A1L       0.113000
     37 H21        117.0360    93.6600   112.8050 ha         1 A1L       0.113000
     38 H22        114.9560    93.2210   114.0790 ha         1 A1L       0.117000
     39 H13        113.1700    96.8200   117.6540 ha         1 A1L       0.111000
     40 C01        112.9530    94.1190   117.2320 c3         1 A1L      -0.031800
@<TRIPOS>BOND
     1     1    13 1   
     2     1    14 1   
     3     1    19 1   
     4     1    20 1   
     5     2     3 1   
     6     2    14 1   
     7     2    21 1   
     8     3    22 1   
     9     3    23 1   
    10     3    24 1   
    11     4    15 ar  
    12     4    16 ar  
    13     4    25 1   
    14     5    16 ar  
    15     5    17 ar  
    16     5    26 1   
    17     6     7 ar  
    18     6    11 ar  
    19     6    40 1   
    20     7     8 ar  
    21     7    39 1   
    22     8     9 ar  
    23     8    30 1   
    24     9    10 ar  
    25     9    31 1   
    26    10    11 ar  
    27    10    32 1   
    28    11    12 1   
    29    12    13 1   
    30    13    15 1   
    31    13    33 1   
    32    14    34 1   
    33    14    35 1   
    34    15    18 ar  
    35    16    36 1   
    36    17    18 ar  
    37    17    37 1   
    38    18    38 1   
    39    27    40 1   
    40    28    40 1   
    41    29    40 1   
@<TRIPOS>SUBSTRUCTURE
     1 A1L         1 TEMP              0 ****  ****    0 ROOT
