@<TRIPOS>MOLECULE
A1L
   58    57     1     0     0
SMALL
abcg2


@<TRIPOS>ATOM
      1 C01        -28.8180    42.6190    13.4200 c3         1 A1L      -0.088100
      2 C02        -28.5800    41.1180    13.3280 c3         1 A1L      -0.076400
      3 C03        -27.7950    40.7170    12.0850 c3         1 A1L      -0.076400
      4 C04        -27.5490    39.2150    11.9950 c3         1 A1L      -0.073400
      5 C05        -26.7360    38.7840    10.7760 c3         1 A1L      -0.073400
      6 C06        -27.4590    38.9710     9.4470 c3         1 A1L      -0.072400
      7 C07        -26.6420    38.4900     8.2540 c3         1 A1L      -0.080400
      8 C08        -27.3600    38.6670     6.9230 c3         1 A1L      -0.068400
      9 C09        -26.5200    38.2140     5.7360 c3         1 A1L      -0.087400
     10 C10        -27.2270    38.4110     4.3980 c3         1 A1L      -0.073400
     11 C11        -26.4320    37.9020     3.1930 c3         1 A1L      -0.093400
     12 C12        -25.2080    38.7690     2.9560 c3         1 A1L       0.102600
     13 C14        -24.8630    38.1440     0.6010 c3         1 A1L       0.075900
     14 C15        -23.1010    39.2140     1.8510 c3         1 A1L       0.075900
     15 C16        -23.6950    36.8770     2.3160 c3         1 A1L       0.097600
     16 C17        -23.2030    36.7410     3.7440 c3         1 A1L      -0.084400
     17 C18        -22.5810    35.3650     3.9530 c3         1 A1L      -0.216400
     18 C19        -22.2500    35.0580     5.4310 c          1 A1L       0.722000
     19 N13        -24.2260    38.2420     1.9430 n4         1 A1L      -0.500000
     20 O20        -21.2320    34.3720     5.6420 o          1 A1L      -0.709000
     21 O21        -23.0480    35.4980     6.2840 o          1 A1L      -0.709000
     22 H1         -29.3880    42.8820    14.3110 hc         1 A1L       0.030033
     23 H2         -27.8740    43.1670    13.4590 hc         1 A1L       0.030033
     24 H3         -29.3730    42.9840    12.5530 hc         1 A1L       0.030033
     25 H4         -29.5410    40.5940    13.3310 hc         1 A1L       0.036700
     26 H5         -28.0460    40.7760    14.2200 hc         1 A1L       0.036700
     27 H6         -26.8320    41.2410    12.0820 hc         1 A1L       0.035700
     28 H7         -28.3320    41.0680    11.1980 hc         1 A1L       0.035700
     29 H8         -28.5090    38.6880    11.9900 hc         1 A1L       0.037700
     30 H9         -27.0300    38.8900    12.9020 hc         1 A1L       0.037700
     31 H10        -26.4660    37.7290    10.8840 hc         1 A1L       0.044200
     32 H11        -25.7900    39.3370    10.7570 hc         1 A1L       0.044200
     33 H12        -27.7130    40.0250     9.3000 hc         1 A1L       0.033200
     34 H13        -28.4110    38.4300     9.4770 hc         1 A1L       0.033200
     35 H14        -26.3820    37.4350     8.3910 hc         1 A1L       0.051200
     36 H15        -25.6910    39.0340     8.2260 hc         1 A1L       0.051200
     37 H16        -27.6300    39.7210     6.7930 hc         1 A1L       0.032700
     38 H17        -28.3020    38.1100     6.9380 hc         1 A1L       0.032700
     39 H18        -26.2590    37.1560     5.8550 hc         1 A1L       0.055700
     40 H19        -25.5740    38.7630     5.7530 hc         1 A1L       0.055700
     41 H20        -27.4690    39.4690     4.2600 hc         1 A1L       0.048700
     42 H21        -28.1820    37.8810     4.4180 hc         1 A1L       0.048700
     43 H22        -27.0730    37.9130     2.3110 hc         1 A1L       0.061700
     44 H23        -26.1540    36.8610     3.3730 hc         1 A1L       0.061700
     45 H24        -24.6430    38.9140     3.8750 hx         1 A1L       0.089200
     46 H25        -25.5100    39.7560     2.6020 hx         1 A1L       0.089200
     47 H26        -25.6720    37.4210     0.6260 hx         1 A1L       0.087367
     48 H27        -25.2490    39.1210     0.3180 hx         1 A1L       0.087367
     49 H28        -24.1140    37.8230    -0.1200 hx         1 A1L       0.087367
     50 H29        -22.6270    39.3260     2.8210 hx         1 A1L       0.087367
     51 H30        -22.3740    38.8520     1.1280 hx         1 A1L       0.087367
     52 H31        -23.4910    40.1760     1.5280 hx         1 A1L       0.087367
     53 H32        -24.4950    36.1600     2.1270 hx         1 A1L       0.077700
     54 H33        -22.9000    36.6650     1.6000 hx         1 A1L       0.077700
     55 H34        -22.4640    37.5110     3.9810 hc         1 A1L       0.064700
     56 H35        -24.0260    36.8580     4.4470 hc         1 A1L       0.064700
     57 H36        -23.2850    34.5970     3.6060 hc         1 A1L       0.028200
     58 H37        -21.6870    35.2580     3.3360 hc         1 A1L       0.028200
@<TRIPOS>BOND
     1     1     2 1   
     2     1    22 1   
     3     1    23 1   
     4     1    24 1   
     5     2     3 1   
     6     2    25 1   
     7     2    26 1   
     8     3     4 1   
     9     3    27 1   
    10     3    28 1   
    11     4     5 1   
    12     4    29 1   
    13     4    30 1   
    14     5     6 1   
    15     5    31 1   
    16     5    32 1   
    17     6     7 1   
    18     6    33 1   
    19     6    34 1   
    20     7     8 1   
    21     7    35 1   
    22     7    36 1   
    23     8     9 1   
    24     8    37 1   
    25     8    38 1   
    26     9    10 1   
    27     9    39 1   
    28     9    40 1   
    29    10    11 1   
    30    10    41 1   
    31    10    42 1   
    32    11    12 1   
    33    11    43 1   
    34    11    44 1   
    35    12    19 1   
    36    12    45 1   
    37    12    46 1   
    38    13    19 1   
    39    13    47 1   
    40    13    48 1   
    41    13    49 1   
    42    14    19 1   
    43    14    50 1   
    44    14    51 1   
    45    14    52 1   
    46    15    16 1   
    47    15    19 1   
    48    15    53 1   
    49    15    54 1   
    50    16    17 1   
    51    16    55 1   
    52    16    56 1   
    53    17    18 1   
    54    17    57 1   
    55    17    58 1   
    56    18    20 1   
    57    18    21 1   
@<TRIPOS>SUBSTRUCTURE
     1 A1L         1 TEMP              0 ****  ****    0 ROOT
