@<TRIPOS>MOLECULE
A1L
   19    20     1     0     0
SMALL
abcg2


@<TRIPOS>ATOM
      1 C02         26.3640    21.6340    22.1900 cc         1 A1L       0.409800
      2 C04         27.0320    19.8350    23.2700 cc         1 A1L       0.144400
      3 C06         28.2650    18.2790    24.2450 cd         1 A1L       0.733800
      4 C09         29.4180    20.1890    23.1880 c          1 A1L       0.521500
      5 C11         28.0990    20.6170    22.8690 cd         1 A1L       0.091500
      6 C12         25.4160    22.5990    21.5810 c3         1 A1L      -0.123400
      7 N01         25.9340    20.4970    22.8290 na         1 A1L      -0.308500
      8 N03         27.6610    21.7320    22.1990 nd         1 A1L      -0.596000
      9 N05         27.0540    18.6790    23.9510 nc         1 A1L      -0.708100
     10 N07         28.4480    17.1170    24.8950 nv         1 A1L      -1.044200
     11 N08         29.3850    18.9740    23.8900 ns         1 A1L      -0.460400
     12 O10         30.4830    20.7260    22.9330 o          1 A1L      -0.515000
     13 H1          25.9680    23.4250    21.1400 hc         1 A1L       0.057033
     14 H2          24.8160    22.1290    20.8010 hc         1 A1L       0.057033
     15 H3          24.7270    23.0030    22.3250 hc         1 A1L       0.057033
     16 H4          24.9750    20.2060    22.9490 hn         1 A1L       0.363000
     17 H6          27.6360    16.6840    25.3010 hn         1 A1L       0.499500
     18 H7          29.3300    16.9010    25.3280 hn         1 A1L       0.499500
     19 H8          30.2890    18.5950    24.1440 hn         1 A1L       0.322500
@<TRIPOS>BOND
     1     1     6 1   
     2     1     7 1   
     3     1     8 2   
     4     2     5 2   
     5     2     7 1   
     6     2     9 1   
     7     3     9 2   
     8     3    10 1   
     9     3    11 1   
    10     4     5 1   
    11     4    11 1   
    12     4    12 2   
    13     5     8 1   
    14     6    13 1   
    15     6    14 1   
    16     6    15 1   
    17     7    16 1   
    18    10    17 1   
    19    10    18 1   
    20    11    19 1   
@<TRIPOS>SUBSTRUCTURE
     1 A1L         1 TEMP              0 ****  ****    0 ROOT
