@<TRIPOS>MOLECULE
A1L
   36    38     1     0     0
SMALL
No Charge or Current Charge


@<TRIPOS>ATOM
      1 C10        116.6990   138.5680   121.3060 ca         1 A1L      -0.072000
      2 N12        118.3710   141.5580   119.9840 nv         1 A1L      -1.070000
      3 C13        113.9370   138.2640   117.8540 ca         1 A1L      -0.066300
      4 C15        114.9540   136.9010   116.0990 ca         1 A1L      -0.115500
      5 C17        112.8350   136.2240   117.0810 ca         1 A1L      -0.115500
      6 C01        114.6220   142.4510   116.4120 c3         1 A1L       0.157100
      7 C03        113.6920   140.8080   118.0010 c6         1 A1L       0.174800
      8 C04        113.9660   139.4930   118.7790 c6         1 A1L       0.031900
      9 C05        115.2710   139.5470   119.5880 ca         1 A1L      -0.029300
     10 C06        116.2300   140.5670   119.3670 ca         1 A1L      -0.132300
     11 C07        115.9580   141.6650   118.3260 c6         1 A1L       0.219100
     12 C08        117.4170   140.5810   120.1370 ca         1 A1L       0.285000
     13 C09        117.6440   139.5830   121.0970 ca         1 A1L      -0.178000
     14 C11        115.5160   138.5530   120.5540 ca         1 A1L      -0.143000
     15 C14        114.9830   138.0280   116.9370 ca         1 A1L      -0.095500
     16 C16        113.8800   135.9980   116.1690 ca         1 A1L      -0.112000
     17 C18        112.8630   137.3520   117.9200 ca         1 A1L      -0.095500
     18 N02        114.9090   141.3290   117.3300 n3         1 A1L      -0.716600
     19 H1         116.8820   137.7970   122.0510 ha         1 A1L       0.111000
     20 H2         119.2640   141.4710   120.4650 hn         1 A1L       0.442000
     21 H3         118.3150   142.2120   119.2080 hn         1 A1L       0.442000
     22 H4         115.7650   136.7280   115.3940 ha         1 A1L       0.109000
     23 H5         112.0030   135.5260   117.1370 ha         1 A1L       0.109000
     24 H6         115.5360   142.7730   115.8960 h1         1 A1L       0.030700
     25 H7         113.8920   142.1500   115.6490 h1         1 A1L       0.030700
     26 H8         114.2140   143.3110   116.9590 h1         1 A1L       0.030700
     27 H9         113.3090   141.5610   118.7060 h1         1 A1L       0.037700
     28 H10        112.8920   140.6240   117.2690 h1         1 A1L       0.037700
     29 H11        113.1450   139.3880   119.5010 hc         1 A1L       0.059700
     30 H12        116.8920   141.8910   117.7920 h1         1 A1L       0.034700
     31 H13        115.6740   142.5790   118.8700 h1         1 A1L       0.034700
     32 H14        118.5550   139.5930   121.6880 ha         1 A1L       0.110000
     33 H15        114.7860   137.7630   120.7190 ha         1 A1L       0.116000
     34 H16        115.8190   138.7200   116.8750 ha         1 A1L       0.114000
     35 H17        113.8580   135.1250   115.5200 ha         1 A1L       0.109000
     36 H18        112.0470   137.5140   118.6210 ha         1 A1L       0.114000
@<TRIPOS>BOND
     1     1    13 ar  
     2     1    14 ar  
     3     1    19 1   
     4     2    12 1   
     5     2    20 1   
     6     2    21 1   
     7     3     8 1   
     8     3    15 ar  
     9     3    17 ar  
    10     4    15 ar  
    11     4    16 ar  
    12     4    22 1   
    13     5    16 ar  
    14     5    17 ar  
    15     5    23 1   
    16     6    18 1   
    17     6    24 1   
    18     6    25 1   
    19     6    26 1   
    20     7     8 1   
    21     7    18 1   
    22     7    27 1   
    23     7    28 1   
    24     8     9 1   
    25     8    29 1   
    26     9    10 ar  
    27     9    14 ar  
    28    10    11 1   
    29    10    12 ar  
    30    11    18 1   
    31    11    30 1   
    32    11    31 1   
    33    12    13 ar  
    34    13    32 1   
    35    14    33 1   
    36    15    34 1   
    37    16    35 1   
    38    17    36 1   
@<TRIPOS>SUBSTRUCTURE
     1 A1L         1 TEMP              0 ****  ****    0 ROOT
