@<TRIPOS>MOLECULE
A1L
   18    18     1     0     0
SMALL
abcg2


@<TRIPOS>ATOM
      1 O4          38.8440   -10.9020    20.0150 o          1 A1L      -0.559100
      2 C4          37.7450   -11.1810    19.6070 c          1 A1L       0.563100
      3 C3          37.2610   -11.2050    18.1870 c5         1 A1L      -0.201400
      4 C5          36.5660   -11.5920    20.4760 c5         1 A1L       0.056300
      5 C6          36.8580   -12.8180    21.3190 c3         1 A1L      -0.078100
      6 O5          35.5190   -11.8470    19.5640 os         1 A1L      -0.446000
      7 C2          35.7500   -11.1260    18.3570 c5         1 A1L       0.230000
      8 O2          35.3410    -9.8100    18.4740 oh         1 A1L      -0.711000
      9 C1          34.9000   -11.8280    17.2570 c          1 A1L       0.723000
     10 O1A         33.9150   -11.1540    16.8840 o          1 A1L      -0.696500
     11 O1B         35.2590   -12.9490    16.8810 o          1 A1L      -0.696500
     12 H1          37.5360   -12.1710    17.7520 hc         1 A1L       0.086200
     13 H2          37.6900   -10.4170    17.5700 hc         1 A1L       0.086200
     14 H3          36.3190   -10.7480    21.1370 h1         1 A1L       0.049700
     15 H4          35.9790   -13.1070    21.8940 hc         1 A1L       0.035367
     16 H5          37.1600   -13.6640    20.7000 hc         1 A1L       0.035367
     17 H6          37.6600   -12.6040    22.0250 hc         1 A1L       0.035367
     18 H7          34.5100    -9.8010    17.9560 ho         1 A1L       0.490000
@<TRIPOS>BOND
     1     1     2 2   
     2     2     3 1   
     3     2     4 1   
     4     3     7 1   
     5     3    12 1   
     6     3    13 1   
     7     4     5 1   
     8     4     6 1   
     9     4    14 1   
    10     5    15 1   
    11     5    16 1   
    12     5    17 1   
    13     6     7 1   
    14     7     8 1   
    15     7     9 1   
    16     8    18 1   
    17     9    10 1   
    18     9    11 1   
@<TRIPOS>SUBSTRUCTURE
     1 A1L         1 TEMP              0 ****  ****    0 ROOT
