@<TRIPOS>MOLECULE
A1L
   17    17     1     0     0
SMALL
abcg2


@<TRIPOS>ATOM
      1 C1          28.6060    12.4590    19.4910 c          1 A1L       0.714000
      2 C2          27.6240    11.9010    20.5670 c5         1 A1L       0.228000
      3 C3          26.2480    12.5950    20.6440 c5         1 A1L      -0.082400
      4 C4          26.1560    13.1780    22.0510 c5         1 A1L       0.132300
      5 C5          27.2080    12.3480    22.7760 c5         1 A1L       0.127600
      6 O1A         29.1850    11.5670    18.8280 o          1 A1L      -0.699500
      7 O1B         28.7380    13.6840    19.4010 o          1 A1L      -0.699500
      8 O2          27.4750    10.5390    20.3490 oh         1 A1L      -0.720000
      9 O4          26.4770    14.5520    22.0110 oh         1 A1L      -0.690000
     10 O5          28.2300    12.1500    21.8250 os         1 A1L      -0.441000
     11 H1          26.1250    13.3700    19.8880 hc         1 A1L       0.057200
     12 H2          25.4590    11.8590    20.4890 hc         1 A1L       0.057200
     13 H3          25.1640    13.0200    22.4910 h1         1 A1L       0.007700
     14 H4          26.7680    11.3960    23.1040 h1         1 A1L       0.022700
     15 H5          27.6260    12.8440    23.6550 h1         1 A1L       0.022700
     16 H7          28.1860    10.3560    19.7000 ho         1 A1L       0.489000
     17 H8          26.4560    14.8920    22.9110 ho         1 A1L       0.474000
@<TRIPOS>BOND
     1     1     2 1   
     2     1     6 1   
     3     1     7 1   
     4     2     3 1   
     5     2     8 1   
     6     2    10 1   
     7     3     4 1   
     8     3    11 1   
     9     3    12 1   
    10     4     5 1   
    11     4     9 1   
    12     4    13 1   
    13     5    10 1   
    14     5    14 1   
    15     5    15 1   
    16     8    16 1   
    17     9    17 1   
@<TRIPOS>SUBSTRUCTURE
     1 A1L         1 TEMP              0 ****  ****    0 ROOT
