@<TRIPOS>MOLECULE
A1L
   40    41     1     0     0
SMALL
abcg2


@<TRIPOS>ATOM
      1 C10        111.9670    91.7860   113.1410 c3         1 A1L      -0.066400
      2 N12        112.4410    89.4390   113.6940 n7         1 A1L      -0.865400
      3 C13        111.5510    89.1710   114.8060 c3         1 A1L       0.143100
      4 C15        113.6200    93.6330   110.9980 ca         1 A1L      -0.095500
      5 C17        116.0160    93.7690   110.8550 ca         1 A1L      -0.105000
      6 C02        112.7460    95.1870   116.2260 ca         1 A1L      -0.109300
      7 C03        112.8050    96.5080   116.6480 ca         1 A1L      -0.080000
      8 C04        112.7360    97.5670   115.7490 ca         1 A1L      -0.145000
      9 C05        112.6060    97.2970   114.3980 ca         1 A1L      -0.078000
     10 C06        112.5470    95.9850   113.9430 ca         1 A1L      -0.188000
     11 C07        112.6110    94.9340   114.8520 ca         1 A1L       0.141100
     12 O08        112.5440    93.6270   114.5140 os         1 A1L      -0.350100
     13 C09        112.4150    93.2460   113.1570 c3         1 A1L       0.222600
     14 C11        112.9800    90.7890   113.6920 c3         1 A1L       0.161800
     15 C14        113.6920    93.4630   112.3780 ca         1 A1L      -0.120300
     16 C16        114.7720    93.7820   110.2390 ca         1 A1L      -0.111000
     17 C18        116.0960    93.6050   112.2320 ca         1 A1L      -0.111000
     18 C19        114.9420    93.4510   112.9890 ca         1 A1L      -0.095500
     19 H1         111.0250    91.7230   113.6920 hc         1 A1L       0.058700
     20 H2         111.7370    91.5210   112.1060 hc         1 A1L       0.058700
     21 H4         113.2130    88.7880   113.7390 hn         1 A1L       0.409000
     22 H5         111.2780    88.1160   114.8110 h1         1 A1L       0.028367
     23 H6         111.9800    89.4130   115.7890 h1         1 A1L       0.028367
     24 H7         110.6250    89.7410   114.7080 h1         1 A1L       0.028367
     25 H8         112.6510    93.6560   110.5120 ha         1 A1L       0.117000
     26 H9         116.9170    93.8890   110.2670 ha         1 A1L       0.113000
     27 H10        113.6660    93.3950   117.0040 hc         1 A1L       0.040033
     28 H11        112.9200    94.4270   118.2200 hc         1 A1L       0.040033
     29 H12        111.9210    93.4290   117.1680 hc         1 A1L       0.040033
     30 H14        112.7850    98.5880   116.1060 ha         1 A1L       0.114000
     31 H15        112.5540    98.1060   113.6810 ha         1 A1L       0.110000
     32 H16        112.4530    95.8060   112.8800 ha         1 A1L       0.121000
     33 H17        111.6140    93.8310   112.6850 h1         1 A1L       0.049700
     34 H18        113.8670    90.7920   113.0560 h1         1 A1L       0.037700
     35 H19        113.3120    91.1020   114.6940 h1         1 A1L       0.037700
     36 H20        114.6960    93.9150   109.1680 ha         1 A1L       0.113000
     37 H21        117.0620    93.5960   112.7210 ha         1 A1L       0.113000
     38 H22        115.0280    93.3230   114.0610 ha         1 A1L       0.117000
     39 H13        112.9080    96.7090   117.7080 ha         1 A1L       0.111000
     40 C01        112.8170    94.0510   117.2030 c3         1 A1L      -0.031800
@<TRIPOS>BOND
     1     1    13 1   
     2     1    14 1   
     3     1    19 1   
     4     1    20 1   
     5     2     3 1   
     6     2    14 1   
     7     2    21 1   
     8     3    22 1   
     9     3    23 1   
    10     3    24 1   
    11     4    15 ar  
    12     4    16 ar  
    13     4    25 1   
    14     5    16 ar  
    15     5    17 ar  
    16     5    26 1   
    17     6     7 ar  
    18     6    11 ar  
    19     6    40 1   
    20     7     8 ar  
    21     7    39 1   
    22     8     9 ar  
    23     8    30 1   
    24     9    10 ar  
    25     9    31 1   
    26    10    11 ar  
    27    10    32 1   
    28    11    12 1   
    29    12    13 1   
    30    13    15 1   
    31    13    33 1   
    32    14    34 1   
    33    14    35 1   
    34    15    18 ar  
    35    16    36 1   
    36    17    18 ar  
    37    17    37 1   
    38    18    38 1   
    39    27    40 1   
    40    28    40 1   
    41    29    40 1   
@<TRIPOS>SUBSTRUCTURE
     1 A1L         1 TEMP              0 ****  ****    0 ROOT
