@<TRIPOS>MOLECULE
A1L
   18    18     1     0     0
SMALL
abcg2


@<TRIPOS>ATOM
      1 C01         15.5210   161.2590     0.8640 c3         1 A1L      -0.018800
      2 C02         16.7060   161.8710     1.5530 ca         1 A1L      -0.144300
      3 C03         17.7420   161.0620     2.0360 ca         1 A1L       0.099100
      4 C04         18.8350   161.6340     2.6790 ca         1 A1L      -0.232000
      5 C05         18.9050   163.0090     2.8470 ca         1 A1L      -0.054000
      6 C06         17.8940   163.8410     2.3800 ca         1 A1L      -0.161600
      7 C07         16.8100   163.2430     1.7380 ca         1 A1L      -0.054000
      8 C08         17.9610   165.3510     2.5640 c          1 A1L       0.716600
      9 O09         18.9720   165.7980     3.1420 o          1 A1L      -0.724000
     10 O10         16.9990   166.0110     2.1240 o          1 A1L      -0.724000
     11 O11         17.6260   159.7300     1.8490 oh         1 A1L      -0.557100
     12 H1          15.8100   160.7080    -0.0340 hc         1 A1L       0.025033
     13 H2          14.9930   160.5550     1.5100 hc         1 A1L       0.025033
     14 H3          14.8110   162.0290     0.5650 hc         1 A1L       0.025033
     15 H4          19.6340   161.0010     3.0520 ha         1 A1L       0.084000
     16 H5          19.7620   163.4380     3.3490 ha         1 A1L       0.125000
     17 H6          16.0110   163.8740     1.3670 ha         1 A1L       0.127000
     18 H8          18.3880   159.2720     2.2230 ho         1 A1L       0.442000
@<TRIPOS>BOND
     1     1     2 1   
     2     1    12 1   
     3     1    13 1   
     4     1    14 1   
     5     2     3 ar  
     6     2     7 ar  
     7     3     4 ar  
     8     3    11 1   
     9     4     5 ar  
    10     4    15 1   
    11     5     6 ar  
    12     5    16 1   
    13     6     7 ar  
    14     6     8 1   
    15     7    17 1   
    16     8     9 1   
    17     8    10 1   
    18    11    18 1   
@<TRIPOS>SUBSTRUCTURE
     1 A1L         1 TEMP              0 ****  ****    0 ROOT
