@<TRIPOS>MOLECULE
A1L
   20    20     1     0     0
SMALL
abcg2


@<TRIPOS>ATOM
      1 O1A         32.9720   -29.7160   -24.1520 o          1 A1L      -0.704000
      2 C1          33.1260   -28.4850   -23.9940 c          1 A1L       0.706000
      3 O1B         34.1770   -27.8930   -23.6950 o          1 A1L      -0.704000
      4 C2          31.8840   -27.5780   -24.2200 c5         1 A1L       0.240000
      5 O2          32.1920   -26.2930   -23.8160 oh         1 A1L      -0.693000
      6 O5          31.6090   -27.6190   -25.6160 os         1 A1L      -0.473000
      7 C5          30.2860   -28.0840   -25.8640 c5         1 A1L       0.140300
      8 C6          30.2350   -28.8020   -27.1930 c3         1 A1L      -0.074100
      9 C4          29.9300   -28.9280   -24.6340 c5         1 A1L       0.163300
     10 O4          30.4030   -30.2450   -24.6940 oh         1 A1L      -0.775000
     11 C3          30.6070   -28.0960   -23.5490 c5         1 A1L      -0.133400
     12 H2          33.1580   -26.3160   -23.6860 ho         1 A1L       0.483000
     13 H3          29.5930   -27.2290   -25.8960 h1         1 A1L       0.011700
     14 H4          29.2190   -29.1450   -27.3920 hc         1 A1L       0.031367
     15 H5          30.5220   -28.1370   -28.0090 hc         1 A1L       0.031367
     16 H6          30.8950   -29.6680   -27.2060 hc         1 A1L       0.031367
     17 H7          28.8450   -28.9690   -24.5020 h1         1 A1L       0.039700
     18 H8          31.3760   -30.1970   -24.5370 ho         1 A1L       0.577000
     19 H9          29.9730   -27.2440   -23.2880 hc         1 A1L       0.049700
     20 H10         30.7960   -28.6540   -22.6310 hc         1 A1L       0.049700
@<TRIPOS>BOND
     1     1     2 1   
     2     2     3 1   
     3     2     4 1   
     4     4     5 1   
     5     4     6 1   
     6     4    11 1   
     7     5    12 1   
     8     6     7 1   
     9     7     8 1   
    10     7     9 1   
    11     7    13 1   
    12     8    14 1   
    13     8    15 1   
    14     8    16 1   
    15     9    10 1   
    16     9    11 1   
    17     9    17 1   
    18    10    18 1   
    19    11    19 1   
    20    11    20 1   
@<TRIPOS>SUBSTRUCTURE
     1 A1L         1 TEMP              0 ****  ****    0 ROOT
