@<TRIPOS>MOLECULE
A1L
   38    40     1     0     0
SMALL
No Charge or Current Charge


@<TRIPOS>ATOM
      1 C10        114.0350   116.3390   136.7700 ca         1 A1L      -0.110000
      2 C13        117.3450   117.5640   138.2380 c3         1 A1L       0.212100
      3 C15        117.0780   120.3000   133.3760 ca         1 A1L      -0.088000
      4 C17        118.3210   118.9360   131.7870 ca         1 A1L      -0.104000
      5 C01        116.3120   118.0800   140.4210 c3         1 A1L       0.147100
      6 C03        116.8160   119.9290   138.8750 c3         1 A1L       0.130800
      7 C04        117.7680   120.6150   137.8520 c3         1 A1L       0.161600
      8 C06        116.8090   119.5980   135.8140 c3         1 A1L       0.265900
      9 C07        115.8890   118.4240   136.2400 ca         1 A1L      -0.095300
     10 C08        114.7090   118.2750   135.4750 ca         1 A1L      -0.108000
     11 C09        113.7910   117.2460   135.7340 ca         1 A1L      -0.107000
     12 C11        115.1940   116.4680   137.5480 ca         1 A1L      -0.109000
     13 C12        116.1300   117.4970   137.3040 ca         1 A1L      -0.097300
     14 C14        117.3440   119.3680   134.4000 ca         1 A1L      -0.081300
     15 C16        117.5640   120.0840   132.0750 ca         1 A1L      -0.115500
     16 C18        118.5920   118.0030   132.8030 ca         1 A1L      -0.115500
     17 C19        118.1060   118.2190   134.1040 ca         1 A1L      -0.088000
     18 N02        117.1980   118.5620   139.3360 n3         1 A1L      -0.706600
     19 O05        117.9570   119.8140   136.6600 os         1 A1L      -0.445000
     20 H1         113.3260   115.5400   136.9750 ha         1 A1L       0.113000
     21 H2         117.5050   116.5670   138.6720 h1         1 A1L       0.064700
     22 H3         118.2540   117.7450   137.6530 h1         1 A1L       0.064700
     23 H5         118.6970   118.7690   130.7800 ha         1 A1L       0.111000
     24 H6         116.3100   118.7860   141.2620 h1         1 A1L       0.031033
     25 H7         115.2790   117.9690   140.0650 h1         1 A1L       0.031033
     26 H8         116.6530   117.1070   140.7990 h1         1 A1L       0.031033
     27 H9         116.7690   120.5940   139.7480 h1         1 A1L       0.037200
     28 H10        115.8000   119.9200   138.4570 h1         1 A1L       0.037200
     29 H11        118.7360   120.7770   138.3420 h1         1 A1L       0.050700
     30 H12        117.3650   121.6020   137.5920 h1         1 A1L       0.050700
     31 H13        116.1960   120.5100   135.7960 h1         1 A1L       0.041700
     32 H14        114.5010   118.9670   134.6620 ha         1 A1L       0.112000
     33 H15        112.8920   117.1530   135.1280 ha         1 A1L       0.113000
     34 H16        115.3640   115.7600   138.3570 ha         1 A1L       0.109000
     35 H17        117.3540   120.8070   131.2890 ha         1 A1L       0.112000
     36 H18        119.1780   117.1140   132.5820 ha         1 A1L       0.112000
     37 H19        118.3190   117.4920   134.8850 ha         1 A1L       0.115000
     38 H4         116.4920   121.1930   133.5870 ha         1 A1L       0.115000
@<TRIPOS>BOND
     1     1    11 ar  
     2     1    12 ar  
     3     1    20 1   
     4     2    13 1   
     5     2    18 1   
     6     2    21 1   
     7     2    22 1   
     8     3    14 ar  
     9     3    15 ar  
    10     3    38 1   
    11     4    15 ar  
    12     4    16 ar  
    13     4    23 1   
    14     5    18 1   
    15     5    24 1   
    16     5    25 1   
    17     5    26 1   
    18     6     7 1   
    19     6    18 1   
    20     6    27 1   
    21     6    28 1   
    22     7    19 1   
    23     7    29 1   
    24     7    30 1   
    25     8     9 1   
    26     8    14 1   
    27     8    19 1   
    28     8    31 1   
    29     9    10 ar  
    30     9    13 ar  
    31    10    11 ar  
    32    10    32 1   
    33    11    33 1   
    34    12    13 ar  
    35    12    34 1   
    36    14    17 ar  
    37    15    35 1   
    38    16    17 ar  
    39    16    36 1   
    40    17    37 1   
@<TRIPOS>SUBSTRUCTURE
     1 A1L         1 TEMP              0 ****  ****    0 ROOT
