@<TRIPOS>MOLECULE
A1L
   36    38     1     0     0
SMALL
abcg2


@<TRIPOS>ATOM
      1 C10        116.7260   138.7060   121.4090 ca         1 A1L      -0.072000
      2 N12        118.2850   141.6550   119.8640 nv         1 A1L      -1.070000
      3 C13        113.9930   138.2730   117.8950 ca         1 A1L      -0.066300
      4 C15        115.0710   136.9380   116.1920 ca         1 A1L      -0.115500
      5 C17        112.7780   136.5160   116.7520 ca         1 A1L      -0.115500
      6 C01        114.5060   142.2160   116.4920 c3         1 A1L       0.157100
      7 C03        113.6830   140.7390   118.2030 c6         1 A1L       0.174800
      8 C04        113.9940   139.4110   118.8920 c6         1 A1L       0.031900
      9 C05        115.2900   139.5130   119.6580 ca         1 A1L      -0.029300
     10 C06        116.2110   140.5090   119.3450 ca         1 A1L      -0.132300
     11 C07        115.9400   141.5120   118.2570 c6         1 A1L       0.219100
     12 C08        117.4010   140.6160   120.0930 ca         1 A1L       0.285000
     13 C09        117.6480   139.6980   121.1150 ca         1 A1L      -0.178000
     14 C11        115.5490   138.6100   120.6880 ca         1 A1L      -0.143000
     15 C14        115.1160   137.9580   117.1320 ca         1 A1L      -0.095500
     16 C16        113.9020   136.2140   115.9960 ca         1 A1L      -0.112000
     17 C18        112.8280   137.5370   117.6930 ca         1 A1L      -0.095500
     18 N02        114.8200   141.1540   117.4180 n3         1 A1L      -0.716600
     19 H1         116.9320   138.0070   122.2100 ha         1 A1L       0.111000
     20 H2         119.2040   141.5200   120.2580 hn         1 A1L       0.442000
     21 H3         118.3540   141.9870   118.9150 hn         1 A1L       0.442000
     22 H4         115.9550   136.7070   115.6100 ha         1 A1L       0.109000
     23 H5         111.8620   135.9560   116.6140 ha         1 A1L       0.109000
     24 H6         115.3810   142.4510   115.8830 h1         1 A1L       0.030700
     25 H7         113.7080   141.9020   115.8190 h1         1 A1L       0.030700
     26 H8         114.1860   143.1460   116.9870 h1         1 A1L       0.030700
     27 H9         113.4030   141.4890   118.9620 h1         1 A1L       0.037700
     28 H10        112.8200   140.6160   117.5440 h1         1 A1L       0.037700
     29 H11        113.1910   139.2200   119.6110 hc         1 A1L       0.059700
     30 H12        116.8180   141.6110   117.6080 h1         1 A1L       0.034700
     31 H13        115.7990   142.5060   118.7230 h1         1 A1L       0.034700
     32 H14        118.5670   139.7710   121.6860 ha         1 A1L       0.110000
     33 H15        114.8210   137.8410   120.9180 ha         1 A1L       0.116000
     34 H16        116.0370   138.5070   117.2780 ha         1 A1L       0.114000
     35 H17        113.8700   135.4170   115.2640 ha         1 A1L       0.109000
     36 H18        111.9460   137.7660   118.2810 ha         1 A1L       0.114000
@<TRIPOS>BOND
     1     1    13 ar  
     2     1    14 ar  
     3     1    19 1   
     4     2    12 1   
     5     2    20 1   
     6     2    21 1   
     7     3     8 1   
     8     3    15 ar  
     9     3    17 ar  
    10     4    15 ar  
    11     4    16 ar  
    12     4    22 1   
    13     5    16 ar  
    14     5    17 ar  
    15     5    23 1   
    16     6    18 1   
    17     6    24 1   
    18     6    25 1   
    19     6    26 1   
    20     7     8 1   
    21     7    18 1   
    22     7    27 1   
    23     7    28 1   
    24     8     9 1   
    25     8    29 1   
    26     9    10 ar  
    27     9    14 ar  
    28    10    11 1   
    29    10    12 ar  
    30    11    18 1   
    31    11    30 1   
    32    11    31 1   
    33    12    13 ar  
    34    13    32 1   
    35    14    33 1   
    36    15    34 1   
    37    16    35 1   
    38    17    36 1   
@<TRIPOS>SUBSTRUCTURE
     1 A1L         1 TEMP              0 ****  ****    0 ROOT
