@<TRIPOS>MOLECULE
A1L
   20    20     1     0     0
SMALL
No Charge or Current Charge


@<TRIPOS>ATOM
      1 O1A         33.1920   -29.7040   -24.2870 o          1 A1L      -0.704000
      2 C1          33.1420   -28.5610   -23.8390 c          1 A1L       0.706000
      3 O1B         33.9750   -28.1320   -23.0470 o          1 A1L      -0.704000
      4 C2          31.9610   -27.5850   -24.3280 c5         1 A1L       0.240000
      5 O2          32.2550   -26.2030   -24.0900 oh         1 A1L      -0.693000
      6 O5          31.6820   -27.7840   -25.7420 os         1 A1L      -0.473000
      7 C5          30.2880   -28.1140   -25.8960 c5         1 A1L       0.140300
      8 C6          30.0460   -28.7990   -27.2580 c3         1 A1L      -0.074100
      9 C4          29.9880   -28.9680   -24.6250 c5         1 A1L       0.163300
     10 O4          30.6060   -30.2640   -24.6310 oh         1 A1L      -0.775000
     11 C3          30.6480   -28.0260   -23.5890 c5         1 A1L      -0.133400
     12 H2          33.0220   -26.2210   -23.4710 ho         1 A1L       0.483000
     13 H3          29.7090   -27.1810   -25.8720 h1         1 A1L       0.011700
     14 H4          28.9980   -29.1020   -27.3590 hc         1 A1L       0.031367
     15 H5          30.2760   -28.1160   -28.0840 hc         1 A1L       0.031367
     16 H6          30.6690   -29.6940   -27.3770 hc         1 A1L       0.031367
     17 H7          28.9060   -29.0630   -24.4520 h1         1 A1L       0.039700
     18 H8          31.5970   -30.0960   -24.6190 ho         1 A1L       0.577000
     19 H9          30.0000   -27.1670   -23.3780 hc         1 A1L       0.049700
     20 H10         30.8380   -28.5190   -22.6280 hc         1 A1L       0.049700
@<TRIPOS>BOND
     1     1     2 1   
     2     2     3 1   
     3     2     4 1   
     4     4     5 1   
     5     4     6 1   
     6     4    11 1   
     7     5    12 1   
     8     6     7 1   
     9     7     8 1   
    10     7     9 1   
    11     7    13 1   
    12     8    14 1   
    13     8    15 1   
    14     8    16 1   
    15     9    10 1   
    16     9    11 1   
    17     9    17 1   
    18    10    18 1   
    19    11    19 1   
    20    11    20 1   
@<TRIPOS>SUBSTRUCTURE
     1 A1L         1 TEMP              0 ****  ****    0 ROOT
