@<TRIPOS>MOLECULE
A1L
   19    20     1     0     0
SMALL
No Charge or Current Charge


@<TRIPOS>ATOM
      1 C02         26.3240    21.6240    22.2010 cc         1 A1L       0.409800
      2 C04         27.0250    19.8200    23.2530 cc         1 A1L       0.144400
      3 C06         28.3280    18.2670    24.1970 cd         1 A1L       0.733800
      4 C09         29.4730    20.1230    23.2150 c          1 A1L       0.521500
      5 C11         28.0970    20.5920    22.8780 cd         1 A1L       0.091500
      6 C12         25.3910    22.6240    21.5870 c3         1 A1L      -0.123400
      7 N01         25.9080    20.4720    22.8250 na         1 A1L      -0.308500
      8 N03         27.6470    21.7290    22.2140 nd         1 A1L      -0.596000
      9 N05         27.0940    18.6240    23.9280 nc         1 A1L      -0.708100
     10 N07         28.4560    17.1290    24.8520 nv         1 A1L      -1.044200
     11 N08         29.4600    18.9320    23.8860 ns         1 A1L      -0.460400
     12 O10         30.5150    20.7030    22.9410 o          1 A1L      -0.515000
     13 H1          25.9440    23.4610    21.1440 hc         1 A1L       0.057033
     14 H2          24.7900    22.1590    20.7980 hc         1 A1L       0.057033
     15 H3          24.7090    23.0310    22.3430 hc         1 A1L       0.057033
     16 H4          24.9520    20.1690    22.9430 hn         1 A1L       0.363000
     17 H6          27.5810    16.7820    25.2230 hn         1 A1L       0.499500
     18 H7          29.2520    17.0380    25.4710 hn         1 A1L       0.499500
     19 H8          30.3550    18.5420    24.1300 hn         1 A1L       0.322500
@<TRIPOS>BOND
     1     1     6 1   
     2     1     7 1   
     3     1     8 2   
     4     2     5 2   
     5     2     7 1   
     6     2     9 1   
     7     3     9 2   
     8     3    10 1   
     9     3    11 1   
    10     4     5 1   
    11     4    11 1   
    12     4    12 2   
    13     5     8 1   
    14     6    13 1   
    15     6    14 1   
    16     6    15 1   
    17     7    16 1   
    18    10    17 1   
    19    10    18 1   
    20    11    19 1   
@<TRIPOS>SUBSTRUCTURE
     1 A1L         1 TEMP              0 ****  ****    0 ROOT
