@<TRIPOS>MOLECULE
A1L
   69    71     1     0     0
SMALL
No Charge or Current Charge


@<TRIPOS>ATOM
      1 N1         -23.5230    -1.7060     6.2160 nv         1 A1L      -1.072000
      2 C4         -23.0790    -0.7580     7.1030 ca         1 A1L       0.260000
      3 C5         -21.3410     0.6410     8.0860 ca         1 A1L      -0.088000
      4 C6         -21.7250    -0.3380     7.1460 ca         1 A1L      -0.076300
      5 C7         -20.6500    -0.9040     6.2100 c3         1 A1L      -0.009100
      6 C8         -20.2350     0.0690     5.0770 c3         1 A1L      -0.210400
      7 C10        -22.4640     3.5670     9.8450 c3         1 A1L       0.175800
      8 C13        -21.6020     1.0460    12.0970 c3         1 A1L      -0.072400
      9 C15        -19.5780    -0.4340    12.7640 c6         1 A1L      -0.073400
     10 C17        -18.7240    -0.9570    13.9460 c6         1 A1L      -0.073400
     11 C21        -24.8030     9.6450     5.6970 ca         1 A1L      -0.136300
     12 C22        -24.4520     8.6340     4.7830 ca         1 A1L      -0.075500
     13 C24        -23.8140     7.1690     6.6240 ca         1 A1L       0.170100
     14 C26        -22.6160     4.1400     8.4200 c3         1 A1L      -0.077400
     15 C1         -24.1670     8.1790     7.5440 ca         1 A1L      -0.168500
     16 C11        -20.9380     1.8760    10.9730 c3         1 A1L       0.180800
     17 C12        -24.6590     9.4120     7.0780 ca         1 A1L      -0.075500
     18 C14        -20.6690     0.5620    13.2510 c6         1 A1L      -0.055700
     19 C16        -20.0220     1.7360    14.0400 c6         1 A1L      -0.073400
     20 C18        -19.1680     1.2120    15.2220 c6         1 A1L      -0.073400
     21 C19        -18.0880     0.2120    14.7380 c6         1 A1L      -0.074400
     22 C2         -23.6180     0.7940     8.9060 ca         1 A1L      -0.081000
     23 C23        -23.9600     7.4040     5.2480 ca         1 A1L      -0.168500
     24 C25        -23.1690     5.5750     8.3960 c3         1 A1L       0.154600
     25 C27        -22.2780     1.2140     8.9620 ca         1 A1L       0.177000
     26 C3         -24.0140    -0.1890     7.9830 ca         1 A1L      -0.189000
     27 C9         -21.3900     0.2780     4.0820 c          1 A1L       0.713000
     28 N2         -21.8730     2.2090     9.8780 nh         1 A1L      -0.758400
     29 O1         -23.3220     5.9420     7.0150 os         1 A1L      -0.343100
     30 O2         -22.1180     1.2470     4.2300 o          1 A1L      -0.741000
     31 O3         -21.5330    -0.5460     3.1900 o          1 A1L      -0.741000
     32 H1         -24.5240    -1.8410     6.1030 hn         1 A1L       0.433500
     33 H2         -22.9350    -1.9390     5.4190 hn         1 A1L       0.433500
     34 H3         -20.3090     0.9770     8.1270 ha         1 A1L       0.150000
     35 H4         -20.9510    -1.8620     5.7700 hc         1 A1L       0.031200
     36 H5         -19.7540    -1.1330     6.8010 hc         1 A1L       0.031200
     37 H6         -19.4000    -0.4330     4.5750 hc         1 A1L       0.019700
     38 H7         -19.9510     1.0150     5.5540 hc         1 A1L       0.019700
     39 H8         -21.8330     4.2600    10.4210 h1         1 A1L       0.037700
     40 H9         -23.4480     3.5480    10.3330 h1         1 A1L       0.037700
     41 H10        -22.4190     1.6420    12.5210 hc         1 A1L       0.047700
     42 H11        -22.0800     0.1710    11.6410 hc         1 A1L       0.047700
     43 H12        -20.0460    -1.2820    12.2450 hc         1 A1L       0.043450
     44 H13        -18.9170     0.0520    12.0340 hc         1 A1L       0.043450
     45 H14        -19.3500    -1.5620    14.6170 hc         1 A1L       0.031450
     46 H15        -17.9360    -1.6240    13.5690 hc         1 A1L       0.031450
     47 H16        -26.4390    10.9670     5.1800 hc         1 A1L       0.029367
     48 H17        -25.0230    11.8030     5.8380 hc         1 A1L       0.029367
     49 H18        -24.9940    11.1910     4.1790 hc         1 A1L       0.029367
     50 H20        -23.2850     3.4990     7.8350 hc         1 A1L       0.063700
     51 H21        -21.6380     4.1270     7.9240 hc         1 A1L       0.063700
     52 H22        -24.0680     8.0290     8.6150 ha         1 A1L       0.123000
     53 H23        -20.0920     1.3150    10.5580 h1         1 A1L       0.029200
     54 H24        -20.5230     2.7970    11.4050 h1         1 A1L       0.029200
     55 H25        -24.9270    10.1860     7.7940 ha         1 A1L       0.099000
     56 H26        -21.3300     0.0220    13.9430 hc         1 A1L       0.034700
     57 H27        -19.3870     2.3380    13.3750 hc         1 A1L       0.043450
     58 H28        -20.8030     2.4090    14.4200 hc         1 A1L       0.043450
     59 H29        -18.6900     2.0550    15.7390 hc         1 A1L       0.031450
     60 H30        -19.8200     0.7220    15.9580 hc         1 A1L       0.031450
     61 H31        -17.5320    -0.1810    15.5990 hc         1 A1L       0.034200
     62 H32        -17.3560     0.7320    14.1050 hc         1 A1L       0.034200
     63 H33        -24.3500     1.2270     9.5830 ha         1 A1L       0.103000
     64 H34        -23.6920     6.6250     4.5390 ha         1 A1L       0.123000
     65 H35        -22.4710     6.2510     8.9070 h1         1 A1L       0.050200
     66 H36        -24.1360     5.6070     8.9150 h1         1 A1L       0.050200
     67 H37        -25.0550    -0.5010     7.9540 ha         1 A1L       0.092000
     68 C20        -25.3430    10.9750     5.1960 c3         1 A1L      -0.029800
     69 H19        -24.5590     8.8010     3.7130 ha         1 A1L       0.099000
@<TRIPOS>BOND
     1     1     2 1   
     2     1    32 1   
     3     1    33 1   
     4     2     4 ar  
     5     2    26 ar  
     6     3     4 ar  
     7     3    25 ar  
     8     3    34 1   
     9     4     5 1   
    10     5     6 1   
    11     5    35 1   
    12     5    36 1   
    13     6    27 1   
    14     6    37 1   
    15     6    38 1   
    16     7    14 1   
    17     7    28 1   
    18     7    39 1   
    19     7    40 1   
    20     8    16 1   
    21     8    18 1   
    22     8    41 1   
    23     8    42 1   
    24     9    10 1   
    25     9    18 1   
    26     9    43 1   
    27     9    44 1   
    28    10    21 1   
    29    10    45 1   
    30    10    46 1   
    31    11    12 ar  
    32    11    17 ar  
    33    11    68 1   
    34    12    23 ar  
    35    12    69 1   
    36    13    15 ar  
    37    13    23 ar  
    38    13    29 1   
    39    14    24 1   
    40    14    50 1   
    41    14    51 1   
    42    15    17 ar  
    43    15    52 1   
    44    16    28 1   
    45    16    53 1   
    46    16    54 1   
    47    17    55 1   
    48    18    19 1   
    49    18    56 1   
    50    19    20 1   
    51    19    57 1   
    52    19    58 1   
    53    20    21 1   
    54    20    59 1   
    55    20    60 1   
    56    21    61 1   
    57    21    62 1   
    58    22    25 ar  
    59    22    26 ar  
    60    22    63 1   
    61    23    64 1   
    62    24    29 1   
    63    24    65 1   
    64    24    66 1   
    65    25    28 1   
    66    26    67 1   
    67    27    30 1   
    68    27    31 1   
    69    47    68 1   
    70    48    68 1   
    71    49    68 1   
@<TRIPOS>SUBSTRUCTURE
     1 A1L         1 TEMP              0 ****  ****    0 ROOT
