@<TRIPOS>MOLECULE
A1L
   80    84     1     0     0
SMALL
abcg2


@<TRIPOS>ATOM
      1 C2         -29.7840   -38.8420    19.4340 c3         1 A1L       0.166600
      2 C3         -29.3500   -40.2700    19.1670 c3         1 A1L       0.169800
      3 C5         -27.5920   -41.7570    18.5240 c6         1 A1L       0.167800
      4 C6         -26.2250   -41.8850    17.8710 c6         1 A1L      -0.069400
      5 C7         -26.2850   -41.4410    16.4090 c6         1 A1L      -0.023400
      6 C8         -26.8680   -40.0300    16.3490 c6         1 A1L      -0.069400
      7 C11        -24.7940   -42.3960    14.6210 ca         1 A1L      -0.118000
      8 C12        -23.5740   -42.5150    13.9780 ca         1 A1L      -0.067500
      9 C17        -19.0080   -40.8540    13.2600 ca         1 A1L       0.498900
     10 C18        -18.3000   -41.9380    12.7550 ca         1 A1L      -0.202000
     11 C19        -17.0060   -41.7090    12.3050 ca         1 A1L       0.207100
     12 C21        -17.2670   -39.4360    12.8960 ca         1 A1L       0.394900
     13 N22        -18.5030   -39.6240    13.3330 nb         1 A1L      -0.758000
     14 C24        -15.1690   -42.6280    11.1590 ca         1 A1L       0.060100
     15 C27        -12.8670   -42.4470     9.6640 ca         1 A1L      -0.055000
     16 C31        -16.9470   -42.5270     8.2360 c3         1 A1L       0.166600
     17 C32        -17.5490   -43.8500     8.6460 c3         1 A1L       0.127600
     18 C34        -19.2300   -44.8110     9.9540 c3         1 A1L       0.142900
     19 C36        -10.7290   -42.9280    10.1730 cc         1 A1L      -0.136400
     20 C37        -11.4390   -43.1830    11.2940 cd         1 A1L      -0.204200
     21 C40         -9.5080   -42.3400     6.1310 c3         1 A1L       0.099300
     22 O41        -11.9110   -41.4310     7.1680 o          1 A1L      -0.588100
     23 O1         -28.8000   -38.1880    20.2020 oh         1 A1L      -0.642000
     24 N4         -28.0990   -40.3990    18.4430 n3         1 A1L      -0.703600
     25 C9         -28.2110   -39.9720    17.0600 c6         1 A1L       0.167800
     26 C10        -24.9550   -41.5490    15.7150 ca         1 A1L      -0.046300
     27 C13        -22.4770   -41.7690    14.4010 ca         1 A1L      -0.158600
     28 C14        -21.1830   -41.9740    13.6910 c          1 A1L       0.629700
     29 O15        -20.9510   -43.0070    13.0900 o          1 A1L      -0.580100
     30 N16        -20.3050   -40.9340    13.7580 ns         1 A1L      -0.317900
     31 C20        -16.4630   -40.4300    12.3670 ca         1 A1L      -0.257000
     32 O23        -16.3380   -42.7910    11.8600 os         1 A1L      -0.233200
     33 C25        -13.9770   -42.9730    11.7540 ca         1 A1L      -0.058000
     34 C26        -12.8090   -42.8920    10.9980 ca         1 A1L      -0.108800
     35 C28        -14.0710   -42.0800     9.0690 ca         1 A1L      -0.139000
     36 C29        -15.2260   -42.1750     9.8280 ca         1 A1L       0.112100
     37 O30        -16.4310   -41.7890     9.3400 os         1 A1L      -0.340100
     38 O33        -18.6840   -43.6270     9.4380 os         1 A1L      -0.435000
     39 N35        -11.5750   -42.4870     9.1630 n          1 A1L      -0.097600
     40 N39        -10.0230   -42.6370     7.4490 ns         1 A1L      -0.507900
     41 C42        -22.6280   -40.9180    15.4960 ca         1 A1L      -0.067500
     42 C43        -23.8490   -40.8140    16.1420 ca         1 A1L      -0.118000
     43 H1         -29.9770   -38.3140    18.4920 h1         1 A1L       0.014700
     44 H2         -30.7470   -38.8920    19.9590 h1         1 A1L       0.014700
     45 H3         -30.1810   -40.7790    18.6490 h1         1 A1L       0.036200
     46 H4         -29.2350   -40.7760    20.1300 h1         1 A1L       0.036200
     47 H5         -28.2840   -42.4780    18.0500 h1         1 A1L       0.028950
     48 H6         -27.5200   -42.0410    19.5760 h1         1 A1L       0.028950
     49 H7         -25.8860   -42.9210    17.9430 hc         1 A1L       0.051950
     50 H8         -25.5040   -41.2700    18.4180 hc         1 A1L       0.051950
     51 H9         -26.9850   -42.1080    15.8920 hc         1 A1L       0.048700
     52 H10        -26.1800   -39.3200    16.8200 hc         1 A1L       0.051950
     53 H11        -26.9950   -39.7150    15.3110 hc         1 A1L       0.051950
     54 H12        -25.6380   -42.9770    14.2700 ha         1 A1L       0.118500
     55 H13        -23.4770   -43.1890    13.1370 ha         1 A1L       0.125500
     56 H14        -18.7190   -42.9280    12.7060 ha         1 A1L       0.166000
     57 H15        -16.8830   -38.4250    12.9700 h4         1 A1L       0.015100
     58 H16        -16.1720   -42.7090     7.4860 h1         1 A1L       0.060200
     59 H17        -17.7060   -41.8920     7.7770 h1         1 A1L       0.060200
     60 H18        -17.8040   -44.4040     7.7300 h1         1 A1L       0.026200
     61 H19        -16.8010   -44.4570     9.1780 h1         1 A1L       0.026200
     62 H20        -20.0930   -44.5450    10.5630 h1         1 A1L       0.030700
     63 H21        -19.5610   -45.4940     9.1620 h1         1 A1L       0.030700
     64 H22        -18.5160   -45.3530    10.5860 h1         1 A1L       0.030700
     65 H23         -9.6640   -42.9890    10.0210 h4         1 A1L       0.214000
     66 H24        -11.0360   -43.5230    12.2350 ha         1 A1L       0.211000
     67 H25         -8.5050   -42.7520     6.0590 h1         1 A1L       0.046700
     68 H26        -10.1190   -42.7770     5.3400 h1         1 A1L       0.046700
     69 H27         -9.4470   -41.2660     5.9690 h1         1 A1L       0.046700
     70 H28        -29.1110   -37.2980    20.3890 ho         1 A1L       0.435000
     71 H30        -28.5850   -38.9480    17.0210 h1         1 A1L       0.028950
     72 H31        -28.9410   -40.5950    16.5090 h1         1 A1L       0.028950
     73 H32        -20.6280   -40.0590    14.1450 hn         1 A1L       0.169000
     74 H33        -15.4610   -40.2020    12.0320 ha         1 A1L       0.137000
     75 H34        -13.9580   -43.3190    12.7800 ha         1 A1L       0.135000
     76 H35        -14.1200   -41.7130     8.0550 ha         1 A1L       0.153000
     77 H36         -9.5900   -43.3930     7.9530 hn         1 A1L       0.324500
     78 H37        -21.7910   -40.3490    15.8810 ha         1 A1L       0.125500
     79 H38        -23.9330   -40.1540    16.9970 ha         1 A1L       0.118500
     80 C38        -11.2000   -42.1410     7.8530 c          1 A1L       0.664100
@<TRIPOS>BOND
     1     1     2 1   
     2     1    23 1   
     3     1    43 1   
     4     1    44 1   
     5     2    24 1   
     6     2    45 1   
     7     2    46 1   
     8     3     4 1   
     9     3    24 1   
    10     3    47 1   
    11     3    48 1   
    12     4     5 1   
    13     4    49 1   
    14     4    50 1   
    15     5     6 1   
    16     5    26 1   
    17     5    51 1   
    18     6    25 1   
    19     6    52 1   
    20     6    53 1   
    21     7     8 ar  
    22     7    26 ar  
    23     7    54 1   
    24     8    27 ar  
    25     8    55 1   
    26     9    10 ar  
    27     9    13 ar  
    28     9    30 1   
    29    10    11 ar  
    30    10    56 1   
    31    11    31 ar  
    32    11    32 1   
    33    12    13 ar  
    34    12    31 ar  
    35    12    57 1   
    36    14    32 1   
    37    14    33 ar  
    38    14    36 ar  
    39    15    34 ar  
    40    15    35 ar  
    41    15    39 1   
    42    16    17 1   
    43    16    37 1   
    44    16    58 1   
    45    16    59 1   
    46    17    38 1   
    47    17    60 1   
    48    17    61 1   
    49    18    38 1   
    50    18    62 1   
    51    18    63 1   
    52    18    64 1   
    53    19    20 2   
    54    19    39 1   
    55    19    65 1   
    56    20    34 1   
    57    20    66 1   
    58    21    40 1   
    59    21    67 1   
    60    21    68 1   
    61    21    69 1   
    62    22    80 2   
    63    23    70 1   
    64    24    25 1   
    65    25    71 1   
    66    25    72 1   
    67    26    42 ar  
    68    27    28 1   
    69    27    41 ar  
    70    28    29 2   
    71    28    30 1   
    72    30    73 1   
    73    31    74 1   
    74    33    34 ar  
    75    33    75 1   
    76    35    36 ar  
    77    35    76 1   
    78    36    37 1   
    79    39    80 1   
    80    40    77 1   
    81    40    80 1   
    82    41    42 ar  
    83    41    78 1   
    84    42    79 1   
@<TRIPOS>SUBSTRUCTURE
     1 A1L         1 TEMP              0 ****  ****    0 ROOT
