@<TRIPOS>MOLECULE
A1L
  166   174     1     0     0
SMALL
abcg2


@<TRIPOS>ATOM
      1 O1         -20.6890   -49.7220    22.3960 o          1 A1L      -0.601600
      2 C1         -18.9070   -47.6670    23.3030 cc         1 A1L      -0.017900
      3 C2         -18.0310   -46.7380    23.8930 cc         1 A1L      -0.188500
      4 C3         -19.6340   -46.9890    22.3450 cd         1 A1L      -0.192500
      5 C4         -19.7840   -44.6910    21.4580 c3         1 A1L       0.056400
      6 C5         -18.2500   -45.5200    23.2810 cd         1 A1L      -0.221600
      7 C6         -19.8200   -49.9310    23.2310 c          1 A1L       0.544600
      8 O2         -16.4330   -58.2270    29.8810 o          1 A1L      -0.604600
      9 O3          -9.8970   -58.2360    32.6270 o          1 A1L      -0.604100
     10 O4          -4.9800   -53.3660    31.7700 o          1 A1L      -0.558100
     11 O5          -6.9520   -51.5680    33.9960 o          1 A1L      -0.596100
     12 O6         -12.3020   -56.2820    34.5680 o          1 A1L      -0.601600
     13 N          -17.0860   -44.1250    24.7910 ns         1 A1L      -0.508400
     14 C          -17.5900   -44.2280    23.5470 c          1 A1L       0.647200
     15 O          -17.5100   -43.3410    22.7050 o          1 A1L      -0.596100
     16 C10        -19.5960   -51.2500    23.8520 cc         1 A1L       0.355500
     17 C12        -15.4690   -57.5230    29.6020 c          1 A1L       0.642700
     18 C13        -12.0490   -57.3700    30.9740 cc         1 A1L      -0.020900
     19 C14        -12.5360   -58.5600    31.4800 cd         1 A1L      -0.186500
     20 C15        -14.6070   -59.8880    31.3600 c3         1 A1L       0.059400
     21 C16        -14.1580   -57.6580    30.2530 cd         1 A1L      -0.228100
     22 C17         -9.8010   -57.2520    31.9070 c          1 A1L       0.545100
     23 C18         -8.5620   -56.4600    31.7980 cc         1 A1L       0.359000
     24 C19         -7.1390   -55.0190    31.1460 cd         1 A1L       0.364400
     25 C20         -6.5470   -55.7150    32.1740 cc         1 A1L      -0.222500
     26 C21         -7.2720   -57.5500    33.6800 c3         1 A1L       0.060900
     27 C22         -5.6430   -53.1480    30.7730 c          1 A1L       0.603100
     28 C23        -18.0060   -41.7820    26.8440 c3         1 A1L       0.096500
     29 C24        -16.7520   -42.6630    26.7290 c3         1 A1L      -0.087400
     30 C25        -16.3250   -43.0090    25.3060 c3         1 A1L       0.104500
     31 C26         -7.7930   -51.9230    33.1790 c          1 A1L       0.647200
     32 C27        -10.7770   -54.0560    33.5800 cc         1 A1L      -0.017900
     33 C28        -10.1310   -52.9680    32.9640 cc         1 A1L      -0.188500
     34 C29         -9.8840   -54.6050    34.4790 cd         1 A1L      -0.192500
     35 C30         -7.5690   -54.1760    35.2350 c3         1 A1L       0.056400
     36 C31         -8.8640   -52.8860    33.5020 cd         1 A1L      -0.221600
     37 C32        -12.7560   -55.4810    33.7630 c          1 A1L       0.544600
     38 C34        -15.8940   -55.0470    32.1580 cc         1 A1L       0.361900
     39 C35        -16.1530   -56.2440    32.7840 cd         1 A1L      -0.209000
     40 C36        -14.8450   -57.7350    34.2840 c3         1 A1L       0.060400
     41 C37        -14.1280   -55.5600    33.2250 cd         1 A1L       0.355500
     42 C38        -21.2210   -52.9050    27.6270 c          1 A1L       0.642700
     43 C39        -21.7830   -49.5680    26.1520 cc         1 A1L      -0.020900
     44 C40        -22.7760   -50.3400    25.5800 cd         1 A1L      -0.186500
     45 C41        -23.5850   -52.6610    25.6860 c3         1 A1L       0.059400
     46 C42        -21.6250   -51.6660    26.9450 cd         1 A1L      -0.228100
     47 C43        -22.1080   -47.4080    25.0780 c          1 A1L       0.545100
     48 C44        -21.6350   -46.0140    25.1310 cc         1 A1L       0.359000
     49 C45        -20.5850   -44.2570    25.7090 cd         1 A1L       0.364400
     50 C46        -21.3860   -43.9010    24.6490 cc         1 A1L      -0.222500
     51 C47        -22.9940   -45.1060    23.1980 c3         1 A1L       0.060900
     52 C48        -19.1610   -42.3210    26.0060 c          1 A1L       0.603100
     53 C49         -5.3930   -51.9530    29.8590 c3         1 A1L       0.096500
     54 C50         -6.5350   -50.9260    29.9180 c3         1 A1L      -0.087400
     55 C51         -6.9560   -50.4990    31.3200 c3         1 A1L       0.104500
     56 C7         -18.7410   -52.7830    25.0520 cd         1 A1L       0.361900
     57 C8         -19.7970   -53.3570    24.3820 cc         1 A1L      -0.209000
     58 C82        -19.8250   -53.8530    29.4010 c3         1 A1L       0.113000
     59 C83        -18.6050   -53.3940    30.1820 c3         1 A1L      -0.177900
     60 C84        -17.9640   -54.5040    30.9810 c          1 A1L       0.605600
     61 C87        -16.7220   -56.3030    27.8860 c3         1 A1L       0.113000
     62 C88        -16.5910   -54.9480    27.2130 c3         1 A1L      -0.177900
     63 C89        -17.7660   -54.6200    26.3210 c          1 A1L       0.605600
     64 C9         -21.4630   -52.5290    22.7360 c3         1 A1L       0.060400
     65 C90        -13.0770   -56.7980    30.2050 cc         1 A1L      -0.177500
     66 C95        -21.0540   -50.4080    27.0120 cc         1 A1L      -0.177500
     67 N1         -19.2190   -45.6940    22.3370 na         1 A1L       0.072500
     68 N10         -6.6460   -53.9720    30.3790 ns         1 A1L      -0.468400
     69 N11        -17.6810   -40.4430    26.3980 n8         1 A1L      -0.980700
     70 N12         -7.8420   -51.4790    31.9100 ns         1 A1L      -0.508400
     71 N13         -8.7330   -53.8790    34.4260 na         1 A1L       0.072500
     72 N14        -12.0820   -54.4240    33.2760 ns         1 A1L      -0.355100
     73 N15        -15.0090   -56.5510    33.4620 na         1 A1L      -0.103000
     74 N16        -16.6860   -54.2500    31.3430 ns         1 A1L      -0.464900
     75 N17        -22.6680   -51.6030    26.0660 na         1 A1L       0.068000
     76 N19        -21.5040   -48.2160    25.9690 ns         1 A1L      -0.352600
     77 N2         -18.9560   -49.0030    23.6800 ns         1 A1L      -0.355100
     78 N20        -22.0470   -45.0390    24.2950 na         1 A1L      -0.109000
     79 N21        -20.7530   -45.5610    26.0010 nd         1 A1L      -0.715500
     80 N22        -19.6850   -43.4950    26.4410 ns         1 A1L      -0.468400
     81 N23         -4.1590   -51.3050    30.2540 n8         1 A1L      -0.980700
     82 N3         -20.3260   -52.3570    23.6200 na         1 A1L      -0.103000
     83 N4         -17.8380   -53.3200    25.9590 ns         1 A1L      -0.464900
     84 N5         -13.8100   -58.7210    31.0370 na         1 A1L       0.068000
     85 N7         -10.7940   -56.7890    31.1260 ns         1 A1L      -0.352600
     86 N8          -7.4740   -56.6310    32.5750 na         1 A1L      -0.109000
     87 N81        -20.3420   -52.7400    28.6360 ns         1 A1L      -0.505900
     88 N86        -15.5320   -56.5530    28.6680 ns         1 A1L      -0.505900
     89 N9          -8.3800   -55.4910    30.9210 nd         1 A1L      -0.715500
     90 N90        -14.6450   -54.6360    32.4400 nc         1 A1L      -0.726000
     91 N91        -18.6260   -51.4870    24.7140 nd         1 A1L      -0.726000
     92 O7         -21.6370   -54.0110    27.3010 o          1 A1L      -0.604600
     93 O8         -22.9770   -47.7770    24.3000 o          1 A1L      -0.604100
     94 O85        -18.5460   -55.5280    31.2950 o          1 A1L      -0.570100
     95 O9         -19.5970   -41.7390    25.0310 o          1 A1L      -0.558100
     96 O90        -18.5660   -55.4550    25.9360 o          1 A1L      -0.570100
     97 H1         -17.3080   -46.9530    24.6660 ha         1 A1L       0.128000
     98 H2         -20.4100   -47.3220    21.6790 h4         1 A1L       0.172500
     99 H3         -20.1320   -43.8290    22.0220 h1         1 A1L       0.060533
    100 H4         -19.0590   -44.3590    20.7180 h1         1 A1L       0.060533
    101 H5         -20.6320   -45.1320    20.9420 h1         1 A1L       0.060533
    102 H6         -17.2390   -44.8920    25.4270 hn         1 A1L       0.311000
    103 H7         -12.0760   -59.3030    32.1070 h4         1 A1L       0.175500
    104 H8         -15.4890   -59.6160    31.9320 h1         1 A1L       0.060033
    105 H9         -14.9180   -60.4130    30.4610 h1         1 A1L       0.060033
    106 H10        -13.9940   -60.5570    31.9580 h1         1 A1L       0.060033
    107 H11         -5.5810   -55.6490    32.6400 h4         1 A1L       0.185000
    108 H12         -8.0360   -57.4100    34.4400 h1         1 A1L       0.064367
    109 H13         -7.2920   -58.5810    33.3370 h1         1 A1L       0.064367
    110 H14         -6.3000   -57.3400    34.1150 h1         1 A1L       0.064367
    111 H15        -18.3290   -41.8230    27.8960 h1         1 A1L       0.025700
    112 H16        -16.8780   -43.5820    27.3090 hc         1 A1L       0.045450
    113 H17        -15.9370   -42.1250    27.2180 hc         1 A1L       0.045450
    114 H18        -15.2590   -43.2550    25.3030 h1         1 A1L       0.070450
    115 H19        -16.4550   -42.1510    24.6480 h1         1 A1L       0.070450
    116 H20        -10.5610   -52.3140    32.2200 ha         1 A1L       0.128000
    117 H21         -9.9700   -55.4490    35.1400 h4         1 A1L       0.172500
    118 H22         -6.6720   -54.2190    34.6230 h1         1 A1L       0.060533
    119 H23         -7.4290   -53.4320    36.0160 h1         1 A1L       0.060533
    120 H24         -7.7160   -55.1480    35.6990 h1         1 A1L       0.060533
    121 H25        -17.0140   -56.8860    32.8030 h4         1 A1L       0.192000
    122 H26        -13.9540   -58.2820    33.9950 h1         1 A1L       0.064367
    123 H27        -14.7760   -57.4690    35.3360 h1         1 A1L       0.064367
    124 H28        -15.7140   -58.3710    34.1380 h1         1 A1L       0.064367
    125 H29        -23.5500   -50.0890    24.8780 h4         1 A1L       0.175500
    126 H30        -23.0740   -53.4560    25.1510 h1         1 A1L       0.060033
    127 H31        -24.0780   -53.0830    26.5580 h1         1 A1L       0.060033
    128 H32        -24.3420   -52.2310    25.0360 h1         1 A1L       0.060033
    129 H33        -21.5450   -42.9720    24.1330 h4         1 A1L       0.185000
    130 H34        -22.6740   -45.8290    22.4520 h1         1 A1L       0.064367
    131 H35        -23.9840   -45.3760    23.5550 h1         1 A1L       0.064367
    132 H36        -23.0390   -44.1250    22.7350 h1         1 A1L       0.064367
    133 H37         -5.3680   -52.3410    28.8290 h1         1 A1L       0.025700
    134 H38         -7.4040   -51.2970    29.3670 hc         1 A1L       0.045450
    135 H39         -6.2020   -50.0440    29.3660 hc         1 A1L       0.045450
    136 H40         -7.4570   -49.5290    31.2650 h1         1 A1L       0.070450
    137 H41         -6.0850   -50.3730    31.9600 h1         1 A1L       0.070450
    138 H42        -20.2130   -54.3480    24.3840 h4         1 A1L       0.192000
    139 H43        -20.5840   -54.2500    30.0800 h1         1 A1L       0.073450
    140 H44        -19.5550   -54.6600    28.7190 h1         1 A1L       0.073450
    141 H45        -17.8750   -52.9460    29.5020 hc         1 A1L       0.058200
    142 H46        -18.8860   -52.6020    30.8860 hc         1 A1L       0.058200
    143 H47        -16.8690   -57.0860    27.1370 h1         1 A1L       0.073450
    144 H48        -17.5940   -56.3190    28.5400 h1         1 A1L       0.073450
    145 H49        -16.4540   -54.1660    27.9640 hc         1 A1L       0.058200
    146 H50        -15.6890   -54.9270    26.5900 hc         1 A1L       0.058200
    147 H51        -22.2680   -51.8510    23.0060 h1         1 A1L       0.064367
    148 H52        -21.1800   -52.3510    21.7020 h1         1 A1L       0.064367
    149 H53        -21.8140   -53.5510    22.8340 h1         1 A1L       0.064367
    150 H54        -13.0280   -55.8470    29.6980 ha         1 A1L       0.129500
    151 H55        -20.1870   -50.1180    27.5860 ha         1 A1L       0.129500
    152 H56         -7.1840   -53.7380    29.5570 hn         1 A1L       0.327000
    153 H57        -18.4940   -39.8430    26.4480 hn         1 A1L       0.406750
    154 H58        -16.9990   -40.0480    27.0320 hn         1 A1L       0.406750
    155 H60         -8.5510   -51.8630    31.3060 hn         1 A1L       0.311000
    156 H61        -12.5710   -53.8470    32.6060 hn         1 A1L       0.348000
    157 H62        -16.2540   -53.3910    31.0360 hn         1 A1L       0.326500
    158 H63        -20.7860   -47.8080    26.5520 hn         1 A1L       0.348500
    159 H64        -18.2910   -49.3040    24.3790 hn         1 A1L       0.348000
    160 H65        -19.2790   -43.9510    27.2450 hn         1 A1L       0.327000
    161 H66         -3.3870   -51.9580    30.2200 hn         1 A1L       0.406750
    162 H67         -3.9450   -50.5820    29.5790 hn         1 A1L       0.406750
    163 H69        -17.1480   -52.6740    26.3130 hn         1 A1L       0.326500
    164 H70        -10.6050   -55.9540    30.5900 hn         1 A1L       0.348500
    165 H71        -20.1620   -51.8120    28.9820 hn         1 A1L       0.312500
    166 H72        -14.6740   -56.1390    28.3420 hn         1 A1L       0.312500
@<TRIPOS>BOND
     1     1     7 2   
     2     2     3 1   
     3     2     4 2   
     4     2    77 1   
     5     3     6 2   
     6     3    97 1   
     7     4    67 1   
     8     4    98 1   
     9     5    67 1   
    10     5    99 1   
    11     5   100 1   
    12     5   101 1   
    13     6    14 1   
    14     6    67 1   
    15     7    16 1   
    16     7    77 1   
    17     8    17 2   
    18     9    22 2   
    19    10    27 2   
    20    11    31 2   
    21    12    37 2   
    22    13    14 1   
    23    13    30 1   
    24    13   102 1   
    25    14    15 2   
    26    16    82 1   
    27    16    91 2   
    28    17    21 1   
    29    17    88 1   
    30    18    19 2   
    31    18    65 1   
    32    18    85 1   
    33    19    84 1   
    34    19   103 1   
    35    20    84 1   
    36    20   104 1   
    37    20   105 1   
    38    20   106 1   
    39    21    65 2   
    40    21    84 1   
    41    22    23 1   
    42    22    85 1   
    43    23    86 1   
    44    23    89 2   
    45    24    25 2   
    46    24    68 1   
    47    24    89 1   
    48    25    86 1   
    49    25   107 1   
    50    26    86 1   
    51    26   108 1   
    52    26   109 1   
    53    26   110 1   
    54    27    53 1   
    55    27    68 1   
    56    28    29 1   
    57    28    52 1   
    58    28    69 1   
    59    28   111 1   
    60    29    30 1   
    61    29   112 1   
    62    29   113 1   
    63    30   114 1   
    64    30   115 1   
    65    31    36 1   
    66    31    70 1   
    67    32    33 1   
    68    32    34 2   
    69    32    72 1   
    70    33    36 2   
    71    33   116 1   
    72    34    71 1   
    73    34   117 1   
    74    35    71 1   
    75    35   118 1   
    76    35   119 1   
    77    35   120 1   
    78    36    71 1   
    79    37    41 1   
    80    37    72 1   
    81    38    39 2   
    82    38    74 1   
    83    38    90 1   
    84    39    73 1   
    85    39   121 1   
    86    40    73 1   
    87    40   122 1   
    88    40   123 1   
    89    40   124 1   
    90    41    73 1   
    91    41    90 2   
    92    42    46 1   
    93    42    87 1   
    94    42    92 2   
    95    43    44 2   
    96    43    66 1   
    97    43    76 1   
    98    44    75 1   
    99    44   125 1   
   100    45    75 1   
   101    45   126 1   
   102    45   127 1   
   103    45   128 1   
   104    46    66 2   
   105    46    75 1   
   106    47    48 1   
   107    47    76 1   
   108    47    93 2   
   109    48    78 1   
   110    48    79 2   
   111    49    50 2   
   112    49    79 1   
   113    49    80 1   
   114    50    78 1   
   115    50   129 1   
   116    51    78 1   
   117    51   130 1   
   118    51   131 1   
   119    51   132 1   
   120    52    80 1   
   121    52    95 2   
   122    53    54 1   
   123    53    81 1   
   124    53   133 1   
   125    54    55 1   
   126    54   134 1   
   127    54   135 1   
   128    55    70 1   
   129    55   136 1   
   130    55   137 1   
   131    56    57 2   
   132    56    83 1   
   133    56    91 1   
   134    57    82 1   
   135    57   138 1   
   136    58    59 1   
   137    58    87 1   
   138    58   139 1   
   139    58   140 1   
   140    59    60 1   
   141    59   141 1   
   142    59   142 1   
   143    60    74 1   
   144    60    94 2   
   145    61    62 1   
   146    61    88 1   
   147    61   143 1   
   148    61   144 1   
   149    62    63 1   
   150    62   145 1   
   151    62   146 1   
   152    63    83 1   
   153    63    96 2   
   154    64    82 1   
   155    64   147 1   
   156    64   148 1   
   157    64   149 1   
   158    65   150 1   
   159    66   151 1   
   160    68   152 1   
   161    69   153 1   
   162    69   154 1   
   163    70   155 1   
   164    72   156 1   
   165    74   157 1   
   166    76   158 1   
   167    77   159 1   
   168    80   160 1   
   169    81   161 1   
   170    81   162 1   
   171    83   163 1   
   172    85   164 1   
   173    87   165 1   
   174    88   166 1   
@<TRIPOS>SUBSTRUCTURE
     1 A1L         1 TEMP              0 ****  ****    0 ROOT
