@<TRIPOS>MOLECULE
A1L
   39    40     1     0     0
SMALL
No Charge or Current Charge


@<TRIPOS>ATOM
      1 C10        113.7540    98.0740    70.1500 c3         1 A1L      -0.035300
      2 C15        112.7530    99.0890    70.7930 c          1 A1L       0.717000
      3 C20        117.4960    97.3100    65.6640 ca         1 A1L      -0.108000
      4 C21        118.6670    98.0220    65.3250 ca         1 A1L       0.078100
      5 C22        119.5590    98.3910    66.3440 ca         1 A1L      -0.108000
      6 C01        118.5800    96.4220    71.7460 ca         1 A1L      -0.101000
      7 C02        118.8870    96.8030    70.4330 ca         1 A1L      -0.167000
      8 C03        117.8500    96.9660    69.4810 cp         1 A1L       0.408500
      9 N04        116.5580    96.7540    69.8200 nb         1 A1L      -0.609000
     10 C05        116.2300    96.4070    71.0990 ca         1 A1L       0.346500
     11 C06        117.2330    96.2140    72.0740 ca         1 A1L      -0.130000
     12 C07        114.7660    96.1080    71.4880 c          1 A1L       0.482600
     13 O08        114.4790    95.2420    72.3110 o          1 A1L      -0.708100
     14 N09        113.7100    96.8020    70.9150 ns         1 A1L      -0.412900
     15 C11        113.4620    97.8300    68.6430 c3         1 A1L      -0.184400
     16 C12        113.5520    99.1570    67.8620 c          1 A1L       0.740000
     17 O13        112.5280    99.8040    67.7020 o          1 A1L      -0.757000
     18 O14        114.6450    99.5190    67.4540 o          1 A1L      -0.757000
     19 O16        111.6150    98.7090    71.0400 o          1 A1L      -0.733000
     20 O17        113.1940   100.1630    71.1810 o          1 A1L      -0.733000
     21 C18        118.1290    97.3360    68.0490 cp         1 A1L      -0.091500
     22 C19        117.2350    96.9770    67.0050 ca         1 A1L      -0.061500
     23 C23        119.2980    98.0560    67.6830 ca         1 A1L      -0.061500
     24 C25        118.1870    98.0770    62.8750 c3         1 A1L       0.511000
     25 F26        118.7640    98.5550    61.7510 f          1 A1L      -0.111667
     26 F27        118.0330    96.7440    62.7010 f          1 A1L      -0.111667
     27 F28        116.9560    98.6330    62.9520 f          1 A1L      -0.111667
     28 H1         114.7510    98.5210    70.2490 h1         1 A1L       0.063700
     29 H2         116.7770    97.0050    64.9110 ha         1 A1L       0.118500
     30 H3         120.4610    98.9440    66.0930 ha         1 A1L       0.118500
     31 H4         119.3640    96.2810    72.4860 ha         1 A1L       0.094000
     32 H5         119.9260    96.9450    70.1510 ha         1 A1L       0.100000
     33 H6         116.9600    95.9090    73.0810 ha         1 A1L       0.127000
     34 H7         112.7940    96.5010    71.2260 hn         1 A1L       0.332500
     35 H8         112.4490    97.4130    68.5860 hc         1 A1L       0.008700
     36 H9         114.2370    97.1350    68.3000 hc         1 A1L       0.008700
     37 H12        116.3280    96.4220    67.2330 ha         1 A1L       0.131000
     38 H13        120.0070    98.3750    68.4430 ha         1 A1L       0.131000
     39 O24        118.9960    98.3840    64.0310 os         1 A1L      -0.422100
@<TRIPOS>BOND
     1     1     2 1   
     2     1    14 1   
     3     1    15 1   
     4     1    28 1   
     5     2    19 1   
     6     2    20 1   
     7     3     4 ar  
     8     3    22 ar  
     9     3    29 1   
    10     4     5 ar  
    11     4    39 1   
    12     5    23 ar  
    13     5    30 1   
    14     6     7 ar  
    15     6    11 ar  
    16     6    31 1   
    17     7     8 ar  
    18     7    32 1   
    19     8     9 ar  
    20     8    21 1   
    21     9    10 ar  
    22    10    11 ar  
    23    10    12 1   
    24    11    33 1   
    25    12    13 2   
    26    12    14 1   
    27    14    34 1   
    28    15    16 1   
    29    15    35 1   
    30    15    36 1   
    31    16    17 1   
    32    16    18 1   
    33    21    22 ar  
    34    21    23 ar  
    35    22    37 1   
    36    23    38 1   
    37    24    25 1   
    38    24    26 1   
    39    24    27 1   
    40    24    39 1   
@<TRIPOS>SUBSTRUCTURE
     1 A1L         1 TEMP              0 ****  ****    0 ROOT
