@<TRIPOS>MOLECULE
A1L
   80    84     1     0     0
SMALL
No Charge or Current Charge


@<TRIPOS>ATOM
      1 C2         -30.4080   -38.2980    18.5620 c3         1 A1L       0.166600
      2 C3         -29.5960   -39.5060    19.1230 c3         1 A1L       0.169800
      3 C5         -27.5410   -40.8750    19.1730 c6         1 A1L       0.167800
      4 C6         -26.1550   -41.1300    18.5330 c6         1 A1L      -0.069400
      5 C7         -26.2960   -41.5300    17.0420 c6         1 A1L      -0.023400
      6 C8         -27.1260   -40.4510    16.3010 c6         1 A1L      -0.069400
      7 C11        -24.6240   -43.0470    15.8540 ca         1 A1L      -0.118000
      8 C12        -23.3820   -43.2860    15.2420 ca         1 A1L      -0.067500
      9 C17        -18.9090   -41.4080    13.8730 ca         1 A1L       0.498900
     10 C18        -18.1250   -42.4770    13.4110 ca         1 A1L      -0.202000
     11 C19        -16.8490   -42.2010    12.9160 ca         1 A1L       0.207100
     12 C21        -17.2470   -39.8730    13.4040 ca         1 A1L       0.394900
     13 N22        -18.4860   -40.1300    13.8770 nb         1 A1L      -0.758000
     14 C24        -15.0530   -43.0570    11.5440 ca         1 A1L       0.060100
     15 C27        -12.9650   -42.7190     9.7120 ca         1 A1L      -0.055000
     16 C31        -17.0840   -41.8800     8.5920 c3         1 A1L       0.166600
     17 C32        -17.0760   -43.1510     7.7030 c3         1 A1L       0.127600
     18 C34        -18.2160   -45.2650     7.4050 c3         1 A1L       0.142900
     19 C36        -10.7230   -43.1610     9.8720 cc         1 A1L      -0.136400
     20 C37        -11.3030   -43.5210    11.0690 cd         1 A1L      -0.204200
     21 C40         -9.7990   -41.7890     5.8700 c3         1 A1L       0.099300
     22 O41        -12.4060   -41.7670     6.9650 o          1 A1L      -0.588100
     23 O1         -29.6710   -37.0660    18.6570 oh         1 A1L      -0.642000
     24 N4         -28.3110   -39.8350    18.4360 n3         1 A1L      -0.703600
     25 C9         -28.4860   -40.2100    17.0020 c6         1 A1L       0.167800
     26 C10        -24.9340   -41.7770    16.3750 ca         1 A1L      -0.046300
     27 C13        -22.4170   -42.2590    15.1340 ca         1 A1L      -0.158600
     28 C14        -21.0850   -42.5510    14.4670 c          1 A1L       0.629700
     29 O15        -20.8270   -43.6600    14.0170 o          1 A1L      -0.580100
     30 N16        -20.2020   -41.4980    14.3980 ns         1 A1L      -0.317900
     31 C20        -16.3980   -40.8730    12.9190 ca         1 A1L      -0.257000
     32 O23        -16.0620   -43.2370    12.4660 os         1 A1L      -0.233200
     33 C25        -13.7430   -43.4260    11.9090 ca         1 A1L      -0.058000
     34 C26        -12.7240   -43.2420    10.9710 ca         1 A1L      -0.108800
     35 C28        -14.2650   -42.3530     9.3200 ca         1 A1L      -0.139000
     36 C29        -15.3280   -42.5340    10.2460 ca         1 A1L       0.112100
     37 O30        -16.6390   -42.2090     9.9280 os         1 A1L      -0.340100
     38 O33        -18.1250   -44.0360     8.1440 os         1 A1L      -0.435000
     39 N35        -11.7130   -42.6610     9.0050 n          1 A1L      -0.097600
     40 N39        -10.2060   -42.2300     7.2070 ns         1 A1L      -0.507900
     41 C42        -22.7340   -40.9820    15.6600 ca         1 A1L      -0.067500
     42 C43        -23.9780   -40.7490    16.2720 ca         1 A1L      -0.118000
     43 H1         -30.6890   -38.4940    17.5190 h1         1 A1L       0.014700
     44 H2         -31.3400   -38.2150    19.1350 h1         1 A1L       0.014700
     45 H3         -30.2530   -40.3870    19.1020 h1         1 A1L       0.036200
     46 H4         -29.3960   -39.2960    20.1830 h1         1 A1L       0.036200
     47 H5         -28.1050   -41.8200    19.1950 h1         1 A1L       0.028950
     48 H6         -27.3910   -40.5660    20.2180 h1         1 A1L       0.028950
     49 H7         -25.6340   -41.9230    19.0860 hc         1 A1L       0.051950
     50 H8         -25.5420   -40.2240    18.6310 hc         1 A1L       0.051950
     51 H9         -26.8720   -42.4660    17.0080 hc         1 A1L       0.048700
     52 H10        -26.5720   -39.5040    16.2580 hc         1 A1L       0.051950
     53 H11        -27.2980   -40.7600    15.2610 hc         1 A1L       0.051950
     54 H12        -25.3470   -43.8570    15.9220 ha         1 A1L       0.118500
     55 H13        -23.1740   -44.2790    14.8490 ha         1 A1L       0.125500
     56 H14        -18.4800   -43.4990    13.4300 ha         1 A1L       0.166000
     57 H15        -16.9280   -38.8320    13.4200 h4         1 A1L       0.015100
     58 H16        -16.4550   -41.1000     8.1460 h1         1 A1L       0.060200
     59 H17        -18.1080   -41.4860     8.6250 h1         1 A1L       0.060200
     60 H18        -17.2470   -42.8520     6.6610 h1         1 A1L       0.026200
     61 H19        -16.0980   -43.6460     7.7570 h1         1 A1L       0.026200
     62 H20        -19.0330   -45.8850     7.7940 h1         1 A1L       0.030700
     63 H21        -18.4120   -45.0690     6.3430 h1         1 A1L       0.030700
     64 H22        -17.2830   -45.8390     7.4860 h1         1 A1L       0.030700
     65 H23         -9.6910   -43.2100     9.5420 h4         1 A1L       0.214000
     66 H24        -10.7820   -43.9390    11.9280 ha         1 A1L       0.211000
     67 H25         -8.7170   -41.9270     5.7500 h1         1 A1L       0.046700
     68 H26        -10.3240   -42.3810     5.1090 h1         1 A1L       0.046700
     69 H27        -10.0450   -40.7270     5.7390 h1         1 A1L       0.046700
     70 H28        -30.2240   -36.3710    18.2380 ho         1 A1L       0.435000
     71 H30        -29.0120   -39.4160    16.4540 h1         1 A1L       0.028950
     72 H31        -29.0980   -41.1210    16.9200 h1         1 A1L       0.028950
     73 H32        -20.5370   -40.6270    14.7820 hn         1 A1L       0.169000
     74 H33        -15.4090   -40.6100    12.5590 ha         1 A1L       0.137000
     75 H34        -13.5330   -43.8360    12.8940 ha         1 A1L       0.135000
     76 H35        -14.4420   -41.9430     8.3340 ha         1 A1L       0.153000
     77 H36         -9.4980   -42.5870     7.8330 hn         1 A1L       0.324500
     78 H37        -22.0290   -40.1560    15.6060 ha         1 A1L       0.125500
     79 H38        -24.1950   -39.7590    16.6670 ha         1 A1L       0.118500
     80 C38        -11.5040   -42.1890     7.6760 c          1 A1L       0.664100
@<TRIPOS>BOND
     1     1     2 1   
     2     1    23 1   
     3     1    43 1   
     4     1    44 1   
     5     2    24 1   
     6     2    45 1   
     7     2    46 1   
     8     3     4 1   
     9     3    24 1   
    10     3    47 1   
    11     3    48 1   
    12     4     5 1   
    13     4    49 1   
    14     4    50 1   
    15     5     6 1   
    16     5    26 1   
    17     5    51 1   
    18     6    25 1   
    19     6    52 1   
    20     6    53 1   
    21     7     8 ar  
    22     7    26 ar  
    23     7    54 1   
    24     8    27 ar  
    25     8    55 1   
    26     9    10 ar  
    27     9    13 ar  
    28     9    30 1   
    29    10    11 ar  
    30    10    56 1   
    31    11    31 ar  
    32    11    32 1   
    33    12    13 ar  
    34    12    31 ar  
    35    12    57 1   
    36    14    32 1   
    37    14    33 ar  
    38    14    36 ar  
    39    15    34 ar  
    40    15    35 ar  
    41    15    39 1   
    42    16    17 1   
    43    16    37 1   
    44    16    58 1   
    45    16    59 1   
    46    17    38 1   
    47    17    60 1   
    48    17    61 1   
    49    18    38 1   
    50    18    62 1   
    51    18    63 1   
    52    18    64 1   
    53    19    20 2   
    54    19    39 1   
    55    19    65 1   
    56    20    34 1   
    57    20    66 1   
    58    21    40 1   
    59    21    67 1   
    60    21    68 1   
    61    21    69 1   
    62    22    80 2   
    63    23    70 1   
    64    24    25 1   
    65    25    71 1   
    66    25    72 1   
    67    26    42 ar  
    68    27    28 1   
    69    27    41 ar  
    70    28    29 2   
    71    28    30 1   
    72    30    73 1   
    73    31    74 1   
    74    33    34 ar  
    75    33    75 1   
    76    35    36 ar  
    77    35    76 1   
    78    36    37 1   
    79    39    80 1   
    80    40    77 1   
    81    40    80 1   
    82    41    42 ar  
    83    41    78 1   
    84    42    79 1   
@<TRIPOS>SUBSTRUCTURE
     1 A1L         1 TEMP              0 ****  ****    0 ROOT
