@<TRIPOS>MOLECULE
A1L
   47    51     1     0     0
SMALL
abcg2


@<TRIPOS>ATOM
      1 C01        -12.7040    56.7100   144.6150 cc         1 A1L       0.052600
      2 C02        -11.6500    56.9330   143.5830 c3         1 A1L      -0.065900
      3 C03        -12.3780    56.4070   145.8910 cd         1 A1L      -0.345200
      4 C04        -13.3710    56.1830   146.9120 c          1 A1L       0.672300
      5 C05        -17.7940    56.2080   147.1510 ca         1 A1L      -0.034800
      6 C06        -17.2980    57.0780   148.1220 ca         1 A1L      -0.088000
      7 C07        -18.4560    55.0510   147.5580 ca         1 A1L      -0.088000
      8 C08        -18.6300    54.7750   148.9080 ca         1 A1L      -0.110500
      9 C09        -17.4700    56.8020   149.4690 ca         1 A1L      -0.110500
     10 C10        -18.1390    55.6500   149.8660 ca         1 A1L      -0.100000
     11 C11        -20.1070    56.7630   144.9520 c3         1 A1L       0.295800
     12 C12        -20.7480    55.7070   144.0800 ca         1 A1L      -0.088300
     13 C13        -20.9390    55.9200   142.7160 ca         1 A1L      -0.083000
     14 C14        -21.1330    54.4920   144.6350 ca         1 A1L      -0.083000
     15 C15        -21.4980    54.9250   141.9260 ca         1 A1L      -0.116000
     16 C16        -21.6910    53.4960   143.8450 ca         1 A1L      -0.116000
     17 O03        -13.1630    55.9150   148.0690 o          1 A1L      -0.482000
     18 O02        -14.6740    56.2840   146.5230 os         1 A1L      -0.323200
     19 CE3        -15.0390    56.5920   145.2660 ca         1 A1L       0.234100
     20 CZ3        -14.1030    56.8150   144.2580 ca         1 A1L      -0.184800
     21 CH2        -14.5460    57.1250   142.9550 ca         1 A1L      -0.037000
     22 CZ2        -15.8830    57.2120   142.6410 ca         1 A1L      -0.132000
     23 CE2        -16.7770    56.9830   143.6790 ca         1 A1L       0.102100
     24 O01        -18.1150    57.0090   143.5860 os         1 A1L      -0.140200
     25 CD2        -16.4020    56.6810   144.9850 ca         1 A1L      -0.138800
     26 CG         -17.6290    56.5150   145.7230 cc         1 A1L      -0.032400
     27 CD1        -18.6170    56.7280   144.8180 cd         1 A1L      -0.023100
     28 O04        -20.6220    58.0190   144.5840 oh         1 A1L      -0.641000
     29 C17        -21.8730    53.7100   142.4860 ca         1 A1L      -0.100000
     30 H021       -10.6560    56.8100   144.0050 hc         1 A1L       0.055033
     31 H023       -11.7610    56.2320   142.7550 hc         1 A1L       0.055033
     32 H022       -11.7230    57.9380   143.1640 hc         1 A1L       0.055033
     33 H032       -11.3450    56.3220   146.1980 ha         1 A1L       0.212000
     34 H061       -16.7850    57.9830   147.8190 ha         1 A1L       0.115500
     35 H071       -18.8220    54.3550   146.8140 ha         1 A1L       0.115500
     36 H081       -19.1460    53.8720   149.2090 ha         1 A1L       0.114500
     37 H091       -17.0840    57.4890   150.2110 ha         1 A1L       0.114500
     38 H101       -18.2740    55.4360   150.9180 ha         1 A1L       0.114000
     39 H111       -20.3300    56.5280   146.0010 h1         1 A1L       0.062700
     40 H131       -20.6590    56.8610   142.2620 ha         1 A1L       0.119500
     41 H141       -21.0040    54.3220   145.6980 ha         1 A1L       0.119500
     42 H151       -21.6420    55.1010   140.8680 ha         1 A1L       0.113000
     43 H161       -21.9900    52.5580   144.2930 ha         1 A1L       0.113000
     44 HH21       -13.8150    57.2980   142.1770 ha         1 A1L       0.122000
     45 HZ21       -16.2170    57.4450   141.6400 ha         1 A1L       0.140000
     46 H041       -20.2500    58.6890   145.1670 ho         1 A1L       0.452000
     47 H171       -22.3090    52.9380   141.8660 ha         1 A1L       0.112000
@<TRIPOS>BOND
     1     1     2 1   
     2     1     3 2   
     3     1    20 1   
     4     2    30 1   
     5     2    31 1   
     6     2    32 1   
     7     3     4 1   
     8     3    33 1   
     9     4    17 2   
    10     4    18 1   
    11     5     6 ar  
    12     5     7 ar  
    13     5    26 1   
    14     6     9 ar  
    15     6    34 1   
    16     7     8 ar  
    17     7    35 1   
    18     8    10 ar  
    19     8    36 1   
    20     9    10 ar  
    21     9    37 1   
    22    10    38 1   
    23    11    12 1   
    24    11    27 1   
    25    11    28 1   
    26    11    39 1   
    27    12    13 ar  
    28    12    14 ar  
    29    13    15 ar  
    30    13    40 1   
    31    14    16 ar  
    32    14    41 1   
    33    15    29 ar  
    34    15    42 1   
    35    16    29 ar  
    36    16    43 1   
    37    18    19 1   
    38    19    20 ar  
    39    19    25 ar  
    40    20    21 ar  
    41    21    22 ar  
    42    21    44 1   
    43    22    23 ar  
    44    22    45 1   
    45    23    24 1   
    46    23    25 ar  
    47    24    27 1   
    48    25    26 1   
    49    26    27 2   
    50    28    46 1   
    51    29    47 1   
@<TRIPOS>SUBSTRUCTURE
     1 A1L         1 TEMP              0 ****  ****    0 ROOT
