@<TRIPOS>MOLECULE
A1L
  134   133     1     0     0
SMALL
abcg2


@<TRIPOS>ATOM
      1 O12        174.8270   158.2620   120.6470 o          1 A1L      -0.795000
      2 P          174.0120   159.4800   120.3730 p5         1 A1L       1.382800
      3 O14        173.2230   160.1770   121.4380 o          1 A1L      -0.795000
      4 O13        175.0510   160.5410   119.6540 os         1 A1L      -0.543400
      5 C11        174.5790   161.8030   119.2420 c3         1 A1L       0.223600
      6 C12        174.7930   162.7880   120.3860 c3         1 A1L       0.044600
      7 N          174.2890   164.1830   120.1350 n4         1 A1L      -0.491000
      8 C13        174.9500   164.7920   118.9470 c3         1 A1L       0.077567
      9 C14        172.8100   164.1920   119.9440 c3         1 A1L       0.077567
     10 C15        174.6160   165.0010   121.3390 c3         1 A1L       0.077567
     11 O11        173.0380   159.1910   119.0680 os         1 A1L      -0.615400
     12 C1         171.6330   159.1730   119.1620 c3         1 A1L       0.216600
     13 C2         171.1050   157.7630   118.8930 c3         1 A1L       0.132300
     14 O21        169.6900   157.7960   119.1050 os         1 A1L      -0.455100
     15 C21        168.8560   157.9530   118.0750 c          1 A1L       0.599100
     16 O22        169.2200   158.0290   116.9290 o          1 A1L      -0.494000
     17 C22        167.4290   158.0650   118.5400 c3         1 A1L      -0.134400
     18 C23        166.9650   156.9710   119.5010 c3         1 A1L      -0.072400
     19 C24        165.5900   157.2780   120.0830 c3         1 A1L      -0.075400
     20 C25        165.1180   156.2020   121.0550 c3         1 A1L      -0.076400
     21 C26        163.9250   156.6030   121.9210 c3         1 A1L      -0.071400
     22 C27        164.2350   157.7580   122.8690 c3         1 A1L      -0.079400
     23 C28        163.1990   157.9640   123.9670 c3         1 A1L      -0.075400
     24 C29        163.6170   159.0530   124.9470 c3         1 A1L      -0.076400
     25 C2A        162.5670   159.3720   126.0050 c3         1 A1L      -0.072400
     26 C2B        163.0470   160.3590   127.0650 c3         1 A1L      -0.076400
     27 C2C        163.4280   161.7300   126.5160 c3         1 A1L      -0.074400
     28 C2D        163.8080   162.7450   127.5920 c3         1 A1L      -0.072400
     29 C2E        164.9410   162.3150   128.5240 c3         1 A1L      -0.075400
     30 C2F        166.2370   161.9410   127.8140 c3         1 A1L      -0.073400
     31 C2G        167.3360   161.4510   128.7540 c3         1 A1L      -0.076400
     32 C2H        167.8320   162.4970   129.7470 c3         1 A1L      -0.075400
     33 C2I        169.0080   162.0050   130.5810 c3         1 A1L      -0.090100
     34 C3         171.6750   156.6950   119.7980 c3         1 A1L       0.152600
     35 O31        171.4370   157.0180   121.1660 os         1 A1L      -0.433100
     36 C31        170.5800   156.2920   121.8850 c          1 A1L       0.603100
     37 O32        170.0050   155.3220   121.4640 o          1 A1L      -0.503000
     38 C32        170.4640   156.8400   123.2830 c3         1 A1L      -0.140400
     39 C33        169.6800   155.9550   124.2430 c3         1 A1L      -0.062400
     40 C34        168.1660   156.0050   124.0760 c3         1 A1L      -0.077400
     41 C35        167.4500   155.0880   125.0600 c3         1 A1L      -0.076400
     42 C36        165.9340   155.2330   125.0190 c3         1 A1L      -0.076400
     43 C37        165.1750   154.2580   125.9170 c3         1 A1L      -0.066400
     44 C38        165.5960   154.2710   127.3900 c3         1 A1L      -0.041200
     45 C39        165.5000   155.6150   128.0400 c2         1 A1L      -0.212200
     46 C3A        164.7830   155.8880   129.1270 c2         1 A1L      -0.227200
     47 C3B        164.7020   157.2230   129.7960 c3         1 A1L      -0.039200
     48 C3C        163.2700   157.7360   129.9340 c3         1 A1L      -0.073400
     49 C3D        163.1960   159.0600   130.6820 c3         1 A1L      -0.077400
     50 C3E        161.7820   159.6110   130.8060 c3         1 A1L      -0.075400
     51 C3F        161.7320   160.9730   131.4860 c3         1 A1L      -0.075400
     52 C3G        160.3170   161.5190   131.6180 c3         1 A1L      -0.088100
     53 H2         173.5290   161.7690   118.9390 h1         1 A1L       0.034700
     54 H3         175.1570   162.0930   118.3630 h1         1 A1L       0.034700
     55 H4         175.8580   162.8780   120.6060 hx         1 A1L       0.113700
     56 H5         174.2800   162.4290   121.2760 hx         1 A1L       0.113700
     57 H6         176.0280   164.7490   119.0790 hx         1 A1L       0.091700
     58 H7         174.6630   164.2540   118.0480 hx         1 A1L       0.091700
     59 H8         174.6290   165.8270   118.8590 hx         1 A1L       0.091700
     60 H9         172.3410   163.6870   120.7850 hx         1 A1L       0.091700
     61 H10        172.4730   165.2250   119.8980 hx         1 A1L       0.091700
     62 H11        172.5500   163.6920   119.0170 hx         1 A1L       0.091700
     63 H12        174.1320   164.5620   122.2070 hx         1 A1L       0.091700
     64 H13        175.6940   165.0100   121.4810 hx         1 A1L       0.091700
     65 H14        174.2550   166.0150   121.1880 hx         1 A1L       0.091700
     66 H15        171.2220   159.8500   118.4070 h1         1 A1L       0.036200
     67 H16        171.2840   159.5220   120.1360 h1         1 A1L       0.036200
     68 H17        171.3350   157.4680   117.8650 h1         1 A1L       0.081700
     69 H18        167.3330   159.0380   119.0340 hc         1 A1L       0.063700
     70 H19        166.7880   158.0970   117.6580 hc         1 A1L       0.063700
     71 H20        166.9500   156.0080   118.9820 hc         1 A1L       0.059200
     72 H21        167.6730   156.8690   120.3250 hc         1 A1L       0.059200
     73 H22        165.6450   158.2450   120.5920 hc         1 A1L       0.035200
     74 H23        164.8550   157.3990   119.2810 hc         1 A1L       0.035200
     75 H24        164.8760   155.2930   120.4970 hc         1 A1L       0.043700
     76 H25        165.9470   155.9350   121.7200 hc         1 A1L       0.043700
     77 H26        163.0670   156.8560   121.2890 hc         1 A1L       0.037200
     78 H27        163.6180   155.7340   122.5120 hc         1 A1L       0.037200
     79 H28        165.2110   157.5770   123.3340 hc         1 A1L       0.038200
     80 H29        164.3410   158.6910   122.3080 hc         1 A1L       0.038200
     81 H30        162.2310   158.2190   123.5210 hc         1 A1L       0.037200
     82 H31        163.0460   157.0240   124.5100 hc         1 A1L       0.037200
     83 H32        164.5480   158.7500   125.4420 hc         1 A1L       0.036700
     84 H33        163.8590   159.9580   124.3820 hc         1 A1L       0.036700
     85 H34        161.6680   159.7620   125.5160 hc         1 A1L       0.037200
     86 H35        162.2650   158.4440   126.5010 hc         1 A1L       0.037200
     87 H36        162.2650   160.4870   127.8210 hc         1 A1L       0.040200
     88 H37        163.9020   159.9180   127.5900 hc         1 A1L       0.040200
     89 H38        164.2510   161.6310   125.8030 hc         1 A1L       0.036700
     90 H39        162.5860   162.1290   125.9410 hc         1 A1L       0.036700
     91 H40        164.0820   163.6870   127.1070 hc         1 A1L       0.034700
     92 H41        162.9250   162.9650   128.2020 hc         1 A1L       0.034700
     93 H42        165.1280   163.1270   129.2310 hc         1 A1L       0.036700
     94 H43        164.6140   161.4660   129.1320 hc         1 A1L       0.036700
     95 H44        166.0390   161.1540   127.0800 hc         1 A1L       0.038200
     96 H45        166.6040   162.8010   127.2430 hc         1 A1L       0.038200
     97 H46        166.9770   160.5710   129.3020 hc         1 A1L       0.038200
     98 H47        168.1850   161.1050   128.1560 hc         1 A1L       0.038200
     99 H48        168.1240   163.4000   129.2010 hc         1 A1L       0.035200
    100 H49        167.0190   162.7960   130.4140 hc         1 A1L       0.035200
    101 H50        169.3400   162.7610   131.2920 hc         1 A1L       0.031033
    102 H51        168.7420   161.1110   131.1490 hc         1 A1L       0.031033
    103 H52        169.8600   161.7480   129.9480 hc         1 A1L       0.031033
    104 H53        171.2520   155.7240   119.5410 h1         1 A1L       0.086200
    105 H54        172.7550   156.6410   119.6640 h1         1 A1L       0.086200
    106 H55        171.4760   157.0060   123.6600 hc         1 A1L       0.078700
    107 H56        170.0120   157.8360   123.2200 hc         1 A1L       0.078700
    108 H57        170.0290   154.9220   124.1630 hc         1 A1L       0.044700
    109 H58        169.9230   156.2740   125.2600 hc         1 A1L       0.044700
    110 H59        167.8230   157.0360   124.2250 hc         1 A1L       0.041700
    111 H60        167.8840   155.7350   123.0540 hc         1 A1L       0.041700
    112 H61        167.7260   154.0470   124.8540 hc         1 A1L       0.038200
    113 H62        167.8170   155.3010   126.0690 hc         1 A1L       0.038200
    114 H63        165.6670   156.2620   125.2800 hc         1 A1L       0.038700
    115 H64        165.5880   155.0920   123.9900 hc         1 A1L       0.038700
    116 H65        164.1060   154.4780   125.8490 hc         1 A1L       0.037700
    117 H66        165.3040   153.2420   125.5320 hc         1 A1L       0.037700
    118 H67        164.9840   153.5530   127.9420 hc         1 A1L       0.042700
    119 H68        166.6270   153.9090   127.4660 hc         1 A1L       0.042700
    120 H69        166.0810   156.4180   127.5890 ha         1 A1L       0.168000
    121 H70        164.2020   155.0890   129.5860 ha         1 A1L       0.163000
    122 H71        165.1420   157.1510   130.7980 hc         1 A1L       0.042200
    123 H72        165.3050   157.9540   129.2470 hc         1 A1L       0.042200
    124 H73        162.8280   157.8500   128.9390 hc         1 A1L       0.040200
    125 H74        162.6630   156.9870   130.4540 hc         1 A1L       0.040200
    126 H75        163.6290   158.9380   131.6800 hc         1 A1L       0.036700
    127 H76        163.8250   159.7950   130.1690 hc         1 A1L       0.036700
    128 H77        161.3350   159.6900   129.8090 hc         1 A1L       0.037700
    129 H78        161.1600   158.9010   131.3620 hc         1 A1L       0.037700
    130 H79        162.1910   160.9010   132.4770 hc         1 A1L       0.036200
    131 H80        162.3470   161.6800   130.9190 hc         1 A1L       0.036200
    132 H81        160.3080   162.4970   132.1010 hc         1 A1L       0.031033
    133 H82        159.8450   161.6290   130.6400 hc         1 A1L       0.031033
    134 H83        159.6910   160.8520   132.2120 hc         1 A1L       0.031033
@<TRIPOS>BOND
     1     1     2 1   
     2     2     3 1   
     3     2     4 1   
     4     2    11 1   
     5     4     5 1   
     6     5     6 1   
     7     5    53 1   
     8     5    54 1   
     9     6     7 1   
    10     6    55 1   
    11     6    56 1   
    12     7     8 1   
    13     7     9 1   
    14     7    10 1   
    15     8    57 1   
    16     8    58 1   
    17     8    59 1   
    18     9    60 1   
    19     9    61 1   
    20     9    62 1   
    21    10    63 1   
    22    10    64 1   
    23    10    65 1   
    24    11    12 1   
    25    12    13 1   
    26    12    66 1   
    27    12    67 1   
    28    13    14 1   
    29    13    34 1   
    30    13    68 1   
    31    14    15 1   
    32    15    16 2   
    33    15    17 1   
    34    17    18 1   
    35    17    69 1   
    36    17    70 1   
    37    18    19 1   
    38    18    71 1   
    39    18    72 1   
    40    19    20 1   
    41    19    73 1   
    42    19    74 1   
    43    20    21 1   
    44    20    75 1   
    45    20    76 1   
    46    21    22 1   
    47    21    77 1   
    48    21    78 1   
    49    22    23 1   
    50    22    79 1   
    51    22    80 1   
    52    23    24 1   
    53    23    81 1   
    54    23    82 1   
    55    24    25 1   
    56    24    83 1   
    57    24    84 1   
    58    25    26 1   
    59    25    85 1   
    60    25    86 1   
    61    26    27 1   
    62    26    87 1   
    63    26    88 1   
    64    27    28 1   
    65    27    89 1   
    66    27    90 1   
    67    28    29 1   
    68    28    91 1   
    69    28    92 1   
    70    29    30 1   
    71    29    93 1   
    72    29    94 1   
    73    30    31 1   
    74    30    95 1   
    75    30    96 1   
    76    31    32 1   
    77    31    97 1   
    78    31    98 1   
    79    32    33 1   
    80    32    99 1   
    81    32   100 1   
    82    33   101 1   
    83    33   102 1   
    84    33   103 1   
    85    34    35 1   
    86    34   104 1   
    87    34   105 1   
    88    35    36 1   
    89    36    37 2   
    90    36    38 1   
    91    38    39 1   
    92    38   106 1   
    93    38   107 1   
    94    39    40 1   
    95    39   108 1   
    96    39   109 1   
    97    40    41 1   
    98    40   110 1   
    99    40   111 1   
   100    41    42 1   
   101    41   112 1   
   102    41   113 1   
   103    42    43 1   
   104    42   114 1   
   105    42   115 1   
   106    43    44 1   
   107    43   116 1   
   108    43   117 1   
   109    44    45 1   
   110    44   118 1   
   111    44   119 1   
   112    45    46 2   
   113    45   120 1   
   114    46    47 1   
   115    46   121 1   
   116    47    48 1   
   117    47   122 1   
   118    47   123 1   
   119    48    49 1   
   120    48   124 1   
   121    48   125 1   
   122    49    50 1   
   123    49   126 1   
   124    49   127 1   
   125    50    51 1   
   126    50   128 1   
   127    50   129 1   
   128    51    52 1   
   129    51   130 1   
   130    51   131 1   
   131    52   132 1   
   132    52   133 1   
   133    52   134 1   
@<TRIPOS>SUBSTRUCTURE
     1 A1L         1 TEMP              0 ****  ****    0 ROOT
