@<TRIPOS>MOLECULE
A1L
   39    40     1     0     0
SMALL
abcg2


@<TRIPOS>ATOM
      1 C10        113.8300    98.0000    70.1780 c3         1 A1L      -0.035300
      2 C15        112.6840    98.8660    70.7610 c          1 A1L       0.717000
      3 C20        117.4460    96.6500    65.6910 ca         1 A1L      -0.108000
      4 C21        118.4930    97.4480    65.2620 ca         1 A1L       0.078100
      5 C22        119.3260    98.0870    66.1630 ca         1 A1L      -0.108000
      6 C01        118.4470    96.9380    71.7260 ca         1 A1L      -0.101000
      7 C02        118.7750    97.1260    70.3940 ca         1 A1L      -0.167000
      8 C03        117.7820    96.9610    69.4280 cp         1 A1L       0.408500
      9 N04        116.5390    96.6250    69.7620 nb         1 A1L      -0.609000
     10 C05        116.2280    96.4440    71.0340 ca         1 A1L       0.346500
     11 C06        117.1530    96.5770    72.0630 ca         1 A1L      -0.130000
     12 C07        114.8250    96.0030    71.3550 c          1 A1L       0.482600
     13 O08        114.6690    95.0220    72.0760 o          1 A1L      -0.708100
     14 N09        113.8150    96.7020    70.8350 ns         1 A1L      -0.412900
     15 C11        113.6440    97.8640    68.6620 c3         1 A1L      -0.184400
     16 C12        113.9870    99.1370    67.8640 c          1 A1L       0.740000
     17 O13        113.1390    99.5440    67.0440 o          1 A1L      -0.757000
     18 O14        115.1130    99.6350    68.0740 o          1 A1L      -0.757000
     19 O16        111.7240    98.2510    71.2690 o          1 A1L      -0.733000
     20 O17        112.8070   100.0960    70.6310 o          1 A1L      -0.733000
     21 C18        118.0480    97.1310    67.9840 cp         1 A1L      -0.091500
     22 C19        117.2280    96.4990    67.0490 ca         1 A1L      -0.061500
     23 C23        119.0990    97.9220    67.5210 ca         1 A1L      -0.061500
     24 C25        118.1630    98.5780    63.2450 c3         1 A1L       0.511000
     25 F26        118.4280    98.4280    61.9570 f          1 A1L      -0.111667
     26 F27        116.8400    98.6120    63.4020 f          1 A1L      -0.111667
     27 F28        118.6270    99.7680    63.6330 f          1 A1L      -0.111667
     28 H1         114.7840    98.4870    70.3740 h1         1 A1L       0.063700
     29 H2         116.8140    96.1390    64.9760 ha         1 A1L       0.118500
     30 H3         120.1470    98.7010    65.8190 ha         1 A1L       0.118500
     31 H4         119.1990    97.0620    72.4930 ha         1 A1L       0.094000
     32 H5         119.7880    97.3810    70.1170 ha         1 A1L       0.100000
     33 H6         116.8670    96.4140    73.0930 ha         1 A1L       0.127000
     34 H7         112.8860    96.4120    71.1190 hn         1 A1L       0.332500
     35 H8         112.6240    97.5320    68.4520 hc         1 A1L       0.008700
     36 H9         114.3120    97.0690    68.3200 hc         1 A1L       0.008700
     37 H12        116.4090    95.8800    67.3890 ha         1 A1L       0.131000
     38 H13        119.7430    98.4440    68.2160 ha         1 A1L       0.131000
     39 O24        118.7390    97.5610    63.8990 os         1 A1L      -0.422100
@<TRIPOS>BOND
     1     1     2 1   
     2     1    14 1   
     3     1    15 1   
     4     1    28 1   
     5     2    19 1   
     6     2    20 1   
     7     3     4 ar  
     8     3    22 ar  
     9     3    29 1   
    10     4     5 ar  
    11     4    39 1   
    12     5    23 ar  
    13     5    30 1   
    14     6     7 ar  
    15     6    11 ar  
    16     6    31 1   
    17     7     8 ar  
    18     7    32 1   
    19     8     9 ar  
    20     8    21 1   
    21     9    10 ar  
    22    10    11 ar  
    23    10    12 1   
    24    11    33 1   
    25    12    13 2   
    26    12    14 1   
    27    14    34 1   
    28    15    16 1   
    29    15    35 1   
    30    15    36 1   
    31    16    17 1   
    32    16    18 1   
    33    21    22 ar  
    34    21    23 ar  
    35    22    37 1   
    36    23    38 1   
    37    24    25 1   
    38    24    26 1   
    39    24    27 1   
    40    24    39 1   
@<TRIPOS>SUBSTRUCTURE
     1 A1L         1 TEMP              0 ****  ****    0 ROOT
