@<TRIPOS>MOLECULE
A1L
  166   174     1     0     0
SMALL
No Charge or Current Charge


@<TRIPOS>ATOM
      1 O1         -20.7830   -49.3610    21.8150 o          1 A1L      -0.601600
      2 C1         -19.1120   -47.3530    23.1650 cc         1 A1L      -0.017900
      3 C2         -18.2900   -46.5000    23.9170 cc         1 A1L      -0.188500
      4 C3         -19.8840   -46.5910    22.3320 cd         1 A1L      -0.192500
      5 C4         -20.1440   -44.1060    21.8890 c3         1 A1L       0.056400
      6 C5         -18.5410   -45.1930    23.5630 cd         1 A1L      -0.221600
      7 C6         -19.9030   -49.6730    22.6150 c          1 A1L       0.544600
      8 O2         -17.4800   -57.6510    29.1290 o          1 A1L      -0.604600
      9 O3         -11.3480   -57.6440    33.1070 o          1 A1L      -0.604100
     10 O4          -5.2900   -54.2460    31.1100 o          1 A1L      -0.558100
     11 O5          -6.0330   -51.6140    33.1160 o          1 A1L      -0.596100
     12 O6         -11.7960   -55.3690    35.6040 o          1 A1L      -0.601600
     13 N          -17.0210   -44.2580    25.1660 ns         1 A1L      -0.508400
     14 C          -17.8980   -43.9790    24.1430 c          1 A1L       0.647200
     15 O          -18.1240   -42.8390    23.7660 o          1 A1L      -0.596100
     16 C10        -19.5400   -51.0900    22.9880 cc         1 A1L       0.355500
     17 C12        -16.3660   -57.1820    28.9540 c          1 A1L       0.642700
     18 C13        -13.2200   -57.0590    30.9190 cc         1 A1L      -0.020900
     19 C14        -13.9890   -57.7870    31.7830 cd         1 A1L      -0.186500
     20 C15        -16.3900   -58.6090    31.8020 c3         1 A1L       0.059400
     21 C16        -15.2510   -57.2750    29.9360 cd         1 A1L      -0.228100
     22 C17        -11.0290   -56.9520    32.1420 c          1 A1L       0.545100
     23 C18         -9.6770   -56.3100    31.9460 cc         1 A1L       0.359000
     24 C19         -8.0630   -55.1540    31.0730 cd         1 A1L       0.364400
     25 C20         -7.5630   -55.6490    32.2460 cc         1 A1L      -0.222500
     26 C21         -8.5300   -57.0750    34.1000 c3         1 A1L       0.060900
     27 C22         -6.0970   -53.8600    30.2740 c          1 A1L       0.603100
     28 C23        -18.0420   -42.3090    27.7150 c3         1 A1L       0.096500
     29 C24        -16.7960   -43.2050    27.4410 c3         1 A1L      -0.087400
     30 C25        -16.3050   -43.2600    25.9710 c3         1 A1L       0.104500
     31 C26         -7.1650   -51.7970    32.6970 c          1 A1L       0.647200
     32 C27        -10.2070   -53.4960    33.9760 cc         1 A1L      -0.017900
     33 C28         -9.5270   -52.7220    33.0270 cc         1 A1L      -0.188500
     34 C29         -9.3540   -53.7770    35.0050 cd         1 A1L      -0.192500
     35 C30         -6.9210   -53.2620    35.5170 c3         1 A1L       0.056400
     36 C31         -8.2300   -52.5230    33.4440 cd         1 A1L      -0.221600
     37 C32        -12.2560   -54.7950    34.6190 c          1 A1L       0.544600
     38 C34        -15.4260   -54.7020    32.9020 cc         1 A1L       0.361900
     39 C35        -15.7770   -55.6680    33.7960 cd         1 A1L      -0.209000
     40 C36        -14.4920   -56.8200    35.6610 c3         1 A1L       0.060400
     41 C37        -13.6620   -54.9710    34.0850 cd         1 A1L       0.355500
     42 C38        -19.9700   -53.5330    27.4200 c          1 A1L       0.642700
     43 C39        -21.1930   -50.2960    26.0800 cc         1 A1L      -0.020900
     44 C40        -21.9970   -51.1400    25.3680 cd         1 A1L      -0.186500
     45 C41        -22.2800   -53.6590    25.2250 c3         1 A1L       0.059400
     46 C42        -20.6270   -52.3960    26.7180 cd         1 A1L      -0.228100
     47 C43        -21.9550   -48.0370    25.2840 c          1 A1L       0.545100
     48 C44        -21.5660   -46.5990    25.5280 cc         1 A1L       0.359000
     49 C45        -20.5190   -44.8660    26.3020 cd         1 A1L       0.364400
     50 C46        -21.4330   -44.3700    25.4130 cc         1 A1L      -0.222500
     51 C47        -23.1600   -45.4400    23.8990 c3         1 A1L       0.060900
     52 C48        -19.3500   -42.7730    26.9540 c          1 A1L       0.603100
     53 C49         -5.7200   -52.8040    29.1580 c3         1 A1L       0.096500
     54 C50         -6.6640   -51.5650    29.1370 c3         1 A1L      -0.087400
     55 C51         -6.7210   -50.7350    30.4440 c3         1 A1L       0.104500
     56 C7         -18.5150   -52.7800    23.8800 cd         1 A1L       0.361900
     57 C8         -19.4820   -53.3240    23.0800 cc         1 A1L      -0.209000
     58 C82        -18.2820   -54.0330    29.2250 c3         1 A1L       0.113000
     59 C83        -18.1220   -53.3950    30.6140 c3         1 A1L      -0.177900
     60 C84        -17.5010   -54.3820    31.6030 c          1 A1L       0.605600
     61 C87        -16.9500   -56.2630    26.6950 c3         1 A1L       0.113000
     62 C88        -16.3370   -55.2920    25.6720 c3         1 A1L      -0.177900
     63 C89        -17.3840   -54.8460    24.6510 c          1 A1L       0.605600
     64 C9         -21.2920   -52.3440    21.6070 c3         1 A1L       0.060400
     65 C90        -13.9900   -56.7450    29.7900 cc         1 A1L      -0.177500
     66 C95        -20.3540   -51.0600    26.9030 cc         1 A1L      -0.177500
     67 N1         -19.5340   -45.2560    22.5700 na         1 A1L       0.072500
     68 N10         -7.3950   -54.3270    30.2120 ns         1 A1L      -0.468400
     69 N11        -17.6620   -40.8650    27.5540 n8         1 A1L      -0.980700
     70 N12         -7.5790   -51.3560    31.4600 ns         1 A1L      -0.508400
     71 N13         -8.1300   -53.1760    34.6850 na         1 A1L       0.072500
     72 N14        -11.5250   -53.9050    33.8460 ns         1 A1L      -0.355100
     73 N15        -14.6390   -55.8530    34.5630 na         1 A1L      -0.103000
     74 N16        -16.1940   -54.1190    31.9340 ns         1 A1L      -0.464900
     75 N17        -21.6490   -52.4410    25.7530 na         1 A1L       0.068000
     76 N19        -21.1760   -48.9100    26.0300 ns         1 A1L      -0.352600
     77 N2         -19.1140   -48.7370    23.2700 ns         1 A1L      -0.355100
     78 N20        -22.1010   -45.4700    24.9200 na         1 A1L      -0.109000
     79 N21        -20.6120   -46.2240    26.3890 nd         1 A1L      -0.715500
     80 N22        -19.5880   -44.1330    26.9790 ns         1 A1L      -0.468400
     81 N23         -4.2900   -52.3410    29.1370 n8         1 A1L      -0.980700
     82 N3         -20.1440   -52.2530    22.5230 na         1 A1L      -0.103000
     83 N4         -17.6380   -53.4930    24.6470 ns         1 A1L      -0.464900
     84 N5         -15.2510   -57.9100    31.1910 na         1 A1L       0.068000
     85 N7         -11.8980   -56.6750    31.0960 ns         1 A1L      -0.352600
     86 N8          -8.5880   -56.3780    32.8060 na         1 A1L      -0.109000
     87 N81        -19.0050   -53.1390    28.3180 ns         1 A1L      -0.505900
     88 N86        -16.0300   -56.5110    27.8030 ns         1 A1L      -0.505900
     89 N9          -9.3510   -55.5650    30.8810 nd         1 A1L      -0.715500
     90 N90        -14.1600   -54.2630    33.0600 nc         1 A1L      -0.726000
     91 N91        -18.5460   -51.4160    23.8240 nd         1 A1L      -0.726000
     92 O7         -20.2530   -54.7070    27.2370 o          1 A1L      -0.604600
     93 O8         -22.8470   -48.4120    24.5270 o          1 A1L      -0.604100
     94 O85        -18.1490   -55.2940    32.0930 o          1 A1L      -0.570100
     95 O9         -20.0950   -41.9790    26.3930 o          1 A1L      -0.558100
     96 O90        -17.9040   -55.6370    23.8800 o          1 A1L      -0.570100
     97 H1         -17.5820   -46.8520    24.6610 ha         1 A1L       0.128000
     98 H2         -20.6330   -46.8730    21.6040 h4         1 A1L       0.172500
     99 H3         -20.6050   -43.4430    22.6310 h1         1 A1L       0.060533
    100 H4         -19.3730   -43.5560    21.3370 h1         1 A1L       0.060533
    101 H5         -20.9130   -44.4520    21.1890 h1         1 A1L       0.060533
    102 H6         -16.8970   -45.2370    25.3880 hn         1 A1L       0.311000
    103 H7         -13.7590   -58.2120    32.7520 h4         1 A1L       0.175500
    104 H8         -17.2420   -57.9240    31.8790 h1         1 A1L       0.060033
    105 H9         -16.6670   -59.4700    31.1820 h1         1 A1L       0.060033
    106 H10        -16.1180   -58.9580    32.8060 h1         1 A1L       0.060033
    107 H11         -6.6020   -55.5260    32.7250 h4         1 A1L       0.185000
    108 H12         -9.3400   -56.7180    34.7490 h1         1 A1L       0.064367
    109 H13         -8.6400   -58.1550    33.9430 h1         1 A1L       0.064367
    110 H14         -7.5680   -56.8780    34.5890 h1         1 A1L       0.064367
    111 H15        -18.2840   -42.4370    28.7790 h1         1 A1L       0.025700
    112 H16        -16.9710   -44.2240    27.8070 hc         1 A1L       0.045450
    113 H17        -15.9690   -42.8220    28.0520 hc         1 A1L       0.045450
    114 H18        -15.2430   -43.5400    25.9700 h1         1 A1L       0.070450
    115 H19        -16.3780   -42.2660    25.5100 h1         1 A1L       0.070450
    116 H20         -9.9780   -52.3740    32.1030 ha         1 A1L       0.128000
    117 H21         -9.5040   -54.3430    35.9160 h4         1 A1L       0.172500
    118 H22         -6.1220   -53.7540    34.9510 h1         1 A1L       0.060533
    119 H23         -6.6010   -52.2520    35.8010 h1         1 A1L       0.060533
    120 H24         -7.1320   -53.8420    36.4230 h1         1 A1L       0.060533
    121 H25        -16.7040   -56.2070    33.9450 h4         1 A1L       0.192000
    122 H26        -13.6530   -57.4940    35.4490 h1         1 A1L       0.064367
    123 H27        -14.3020   -56.2860    36.6000 h1         1 A1L       0.064367
    124 H28        -15.4100   -57.4110    35.7630 h1         1 A1L       0.064367
    125 H29        -22.7700   -50.9350    24.6370 h4         1 A1L       0.175500
    126 H30        -21.5090   -54.3370    24.8390 h1         1 A1L       0.060033
    127 H31        -22.8360   -54.1590    26.0270 h1         1 A1L       0.060033
    128 H32        -22.9700   -53.4000    24.4130 h1         1 A1L       0.060033
    129 H33        -21.6380   -43.3620    25.0830 h4         1 A1L       0.185000
    130 H34        -22.8480   -46.0260    23.0260 h1         1 A1L       0.064367
    131 H35        -24.0830   -45.8640    24.3110 h1         1 A1L       0.064367
    132 H36        -23.3490   -44.4050    23.5860 h1         1 A1L       0.064367
    133 H37         -5.8760   -53.3310    28.2070 h1         1 A1L       0.025700
    134 H38         -7.6800   -51.8760    28.8640 hc         1 A1L       0.045450
    135 H39         -6.3370   -50.8990    28.3290 hc         1 A1L       0.045450
    136 H40         -7.1390   -49.7460    30.2160 h1         1 A1L       0.070450
    137 H41         -5.7070   -50.5800    30.8350 h1         1 A1L       0.070450
    138 H42        -19.7530   -54.3510    22.8820 h4         1 A1L       0.192000
    139 H43        -18.8270   -54.9830    29.3210 h1         1 A1L       0.073450
    140 H44        -17.2910   -54.2450    28.8020 h1         1 A1L       0.073450
    141 H45        -17.4930   -52.5020    30.5140 hc         1 A1L       0.058200
    142 H46        -19.1170   -53.1150    30.9810 hc         1 A1L       0.058200
    143 H47        -17.1940   -57.2160    26.2070 h1         1 A1L       0.073450
    144 H48        -17.8810   -55.8410    27.0940 h1         1 A1L       0.073450
    145 H49        -15.9250   -54.4210    26.1960 hc         1 A1L       0.058200
    146 H50        -15.5270   -55.8090    25.1440 hc         1 A1L       0.058200
    147 H51        -22.1460   -51.8020    22.0300 h1         1 A1L       0.064367
    148 H52        -21.0260   -51.9060    20.6370 h1         1 A1L       0.064367
    149 H53        -21.5720   -53.3950    21.4610 h1         1 A1L       0.064367
    150 H54        -13.6130   -56.1730    28.9470 ha         1 A1L       0.129500
    151 H55        -19.6180   -50.6290    27.5740 ha         1 A1L       0.129500
    152 H56         -7.9240   -53.9790    29.4260 hn         1 A1L       0.327000
    153 H57        -18.4710   -40.2750    27.7870 hn         1 A1L       0.406750
    154 H58        -16.9640   -40.6110    28.2640 hn         1 A1L       0.406750
    155 H60         -8.5440   -51.5420    31.2260 hn         1 A1L       0.311000
    156 H61        -12.0630   -53.5460    33.0620 hn         1 A1L       0.348000
    157 H62        -15.7670   -53.3590    31.4260 hn         1 A1L       0.326500
    158 H63        -20.5020   -48.4190    26.6100 hn         1 A1L       0.348500
    159 H64        -18.4500   -49.1700    23.9040 hn         1 A1L       0.348000
    160 H65        -18.9320   -44.6560    27.5380 hn         1 A1L       0.327000
    161 H66         -3.6700   -53.1600    29.0940 hn         1 A1L       0.406750
    162 H67         -4.1010   -51.8460    28.2580 hn         1 A1L       0.406750
    163 H69        -17.0610   -52.9610    25.2820 hn         1 A1L       0.326500
    164 H70        -11.4650   -56.1040    30.3760 hn         1 A1L       0.348500
    165 H71        -18.8460   -52.1430    28.3930 hn         1 A1L       0.312500
    166 H72        -15.0790   -56.1770    27.7360 hn         1 A1L       0.312500
@<TRIPOS>BOND
     1     1     7 2   
     2     2     3 1   
     3     2     4 2   
     4     2    77 1   
     5     3     6 2   
     6     3    97 1   
     7     4    67 1   
     8     4    98 1   
     9     5    67 1   
    10     5    99 1   
    11     5   100 1   
    12     5   101 1   
    13     6    14 1   
    14     6    67 1   
    15     7    16 1   
    16     7    77 1   
    17     8    17 2   
    18     9    22 2   
    19    10    27 2   
    20    11    31 2   
    21    12    37 2   
    22    13    14 1   
    23    13    30 1   
    24    13   102 1   
    25    14    15 2   
    26    16    82 1   
    27    16    91 2   
    28    17    21 1   
    29    17    88 1   
    30    18    19 2   
    31    18    65 1   
    32    18    85 1   
    33    19    84 1   
    34    19   103 1   
    35    20    84 1   
    36    20   104 1   
    37    20   105 1   
    38    20   106 1   
    39    21    65 2   
    40    21    84 1   
    41    22    23 1   
    42    22    85 1   
    43    23    86 1   
    44    23    89 2   
    45    24    25 2   
    46    24    68 1   
    47    24    89 1   
    48    25    86 1   
    49    25   107 1   
    50    26    86 1   
    51    26   108 1   
    52    26   109 1   
    53    26   110 1   
    54    27    53 1   
    55    27    68 1   
    56    28    29 1   
    57    28    52 1   
    58    28    69 1   
    59    28   111 1   
    60    29    30 1   
    61    29   112 1   
    62    29   113 1   
    63    30   114 1   
    64    30   115 1   
    65    31    36 1   
    66    31    70 1   
    67    32    33 1   
    68    32    34 2   
    69    32    72 1   
    70    33    36 2   
    71    33   116 1   
    72    34    71 1   
    73    34   117 1   
    74    35    71 1   
    75    35   118 1   
    76    35   119 1   
    77    35   120 1   
    78    36    71 1   
    79    37    41 1   
    80    37    72 1   
    81    38    39 2   
    82    38    74 1   
    83    38    90 1   
    84    39    73 1   
    85    39   121 1   
    86    40    73 1   
    87    40   122 1   
    88    40   123 1   
    89    40   124 1   
    90    41    73 1   
    91    41    90 2   
    92    42    46 1   
    93    42    87 1   
    94    42    92 2   
    95    43    44 2   
    96    43    66 1   
    97    43    76 1   
    98    44    75 1   
    99    44   125 1   
   100    45    75 1   
   101    45   126 1   
   102    45   127 1   
   103    45   128 1   
   104    46    66 2   
   105    46    75 1   
   106    47    48 1   
   107    47    76 1   
   108    47    93 2   
   109    48    78 1   
   110    48    79 2   
   111    49    50 2   
   112    49    79 1   
   113    49    80 1   
   114    50    78 1   
   115    50   129 1   
   116    51    78 1   
   117    51   130 1   
   118    51   131 1   
   119    51   132 1   
   120    52    80 1   
   121    52    95 2   
   122    53    54 1   
   123    53    81 1   
   124    53   133 1   
   125    54    55 1   
   126    54   134 1   
   127    54   135 1   
   128    55    70 1   
   129    55   136 1   
   130    55   137 1   
   131    56    57 2   
   132    56    83 1   
   133    56    91 1   
   134    57    82 1   
   135    57   138 1   
   136    58    59 1   
   137    58    87 1   
   138    58   139 1   
   139    58   140 1   
   140    59    60 1   
   141    59   141 1   
   142    59   142 1   
   143    60    74 1   
   144    60    94 2   
   145    61    62 1   
   146    61    88 1   
   147    61   143 1   
   148    61   144 1   
   149    62    63 1   
   150    62   145 1   
   151    62   146 1   
   152    63    83 1   
   153    63    96 2   
   154    64    82 1   
   155    64   147 1   
   156    64   148 1   
   157    64   149 1   
   158    65   150 1   
   159    66   151 1   
   160    68   152 1   
   161    69   153 1   
   162    69   154 1   
   163    70   155 1   
   164    72   156 1   
   165    74   157 1   
   166    76   158 1   
   167    77   159 1   
   168    80   160 1   
   169    81   161 1   
   170    81   162 1   
   171    83   163 1   
   172    85   164 1   
   173    87   165 1   
   174    88   166 1   
@<TRIPOS>SUBSTRUCTURE
     1 A1L         1 TEMP              0 ****  ****    0 ROOT
