@<TRIPOS>MOLECULE
A1L
  134   133     1     0     0
SMALL
No Charge or Current Charge


@<TRIPOS>ATOM
      1 O12        172.7280   162.2330   115.7290 o          1 A1L      -0.795000
      2 P          172.8900   161.5850   117.0620 p5         1 A1L       1.382800
      3 O14        173.3710   160.1830   116.9270 o          1 A1L      -0.795000
      4 O13        173.8400   162.4920   118.0070 os         1 A1L      -0.543400
      5 C11        174.2640   162.1770   119.3470 c3         1 A1L       0.223600
      6 C12        174.7080   160.6990   119.4910 c3         1 A1L       0.044600
      7 N          175.1120   160.1890   120.8890 n4         1 A1L      -0.491000
      8 C13        176.3880   160.9000   121.3610 c3         1 A1L       0.077567
      9 C14        173.9900   160.4310   121.9110 c3         1 A1L       0.077567
     10 C15        175.3840   158.6810   120.8050 c3         1 A1L       0.077567
     11 O11        171.5080   161.6920   117.8910 os         1 A1L      -0.615400
     12 C1         171.1690   160.7950   118.9680 c3         1 A1L       0.216600
     13 C2         170.7700   159.3830   118.4300 c3         1 A1L       0.132300
     14 O21        169.3940   159.1560   118.8280 os         1 A1L      -0.455100
     15 C21        168.6600   158.1700   118.2200 c          1 A1L       0.599100
     16 O22        169.0870   157.4090   117.3640 o          1 A1L      -0.494000
     17 C22        167.2210   158.1470   118.7450 c3         1 A1L      -0.134400
     18 C23        167.0880   157.2370   119.9870 c3         1 A1L      -0.072400
     19 C24        165.7090   157.3400   120.6730 c3         1 A1L      -0.075400
     20 C25        165.6060   156.4350   121.9210 c3         1 A1L      -0.076400
     21 C26        164.3190   156.6290   122.7560 c3         1 A1L      -0.071400
     22 C27        164.3000   157.9450   123.5670 c3         1 A1L      -0.079400
     23 C28        163.0410   158.1060   124.4450 c3         1 A1L      -0.075400
     24 C29        163.0770   159.3950   125.2930 c3         1 A1L      -0.076400
     25 C2A        161.7950   159.6150   126.1300 c3         1 A1L      -0.072400
     26 C2B        161.8850   160.8070   127.1120 c3         1 A1L      -0.076400
     27 C2C        162.0300   162.1940   126.4390 c3         1 A1L      -0.074400
     28 C2D        162.0970   163.3800   127.4350 c3         1 A1L      -0.072400
     29 C2E        163.2390   163.3240   128.4830 c3         1 A1L      -0.075400
     30 C2F        164.6660   163.2400   127.8850 c3         1 A1L      -0.073400
     31 C2G        165.7900   163.0990   128.9400 c3         1 A1L      -0.076400
     32 C2H        165.9650   164.3260   129.8640 c3         1 A1L      -0.075400
     33 C2I        167.1420   164.1700   130.8460 c3         1 A1L      -0.090100
     34 C3         171.6930   158.2330   118.9460 c3         1 A1L       0.152600
     35 O31        171.7910   158.2870   120.3880 os         1 A1L      -0.433100
     36 C31        170.9940   157.4680   121.1470 c          1 A1L       0.603100
     37 O32        170.3210   156.5510   120.6980 o          1 A1L      -0.503000
     38 C32        171.2110   157.7400   122.6410 c3         1 A1L      -0.140400
     39 C33        170.7720   156.6380   123.6380 c3         1 A1L      -0.062400
     40 C34        169.2410   156.4720   123.7850 c3         1 A1L      -0.077400
     41 C35        168.8580   155.5100   124.9320 c3         1 A1L      -0.076400
     42 C36        167.3300   155.3440   125.1110 c3         1 A1L      -0.076400
     43 C37        166.9120   154.3840   126.2540 c3         1 A1L      -0.066400
     44 C38        167.3790   154.7840   127.6740 c3         1 A1L      -0.041200
     45 C39        166.8440   156.1270   128.1340 c2         1 A1L      -0.212200
     46 C3A        166.0130   156.3090   129.1710 c2         1 A1L      -0.227200
     47 C3B        165.4970   157.6450   129.6630 c3         1 A1L      -0.039200
     48 C3C        163.9560   157.6980   129.6890 c3         1 A1L      -0.073400
     49 C3D        163.4000   158.9860   130.3350 c3         1 A1L      -0.077400
     50 C3E        161.8570   159.0030   130.3960 c3         1 A1L      -0.075400
     51 C3F        161.2860   160.2920   131.0250 c3         1 A1L      -0.075400
     52 C3G        159.7470   160.3000   131.0880 c3         1 A1L      -0.088100
     53 H2         173.4500   162.3870   120.0510 h1         1 A1L       0.034700
     54 H3         175.1050   162.8230   119.6270 h1         1 A1L       0.034700
     55 H4         175.5510   160.5310   118.8170 hx         1 A1L       0.113700
     56 H5         173.8920   160.0600   119.1570 hx         1 A1L       0.113700
     57 H6         177.1890   160.7200   120.6420 hx         1 A1L       0.091700
     58 H7         176.1970   161.9730   121.4380 hx         1 A1L       0.091700
     59 H8         176.6780   160.5080   122.3380 hx         1 A1L       0.091700
     60 H9         173.0780   159.9370   121.5720 hx         1 A1L       0.091700
     61 H10        174.2920   160.0190   122.8770 hx         1 A1L       0.091700
     62 H11        173.8150   161.5040   122.0110 hx         1 A1L       0.091700
     63 H12        174.4730   158.1680   120.4850 hx         1 A1L       0.091700
     64 H13        176.1830   158.4970   120.0830 hx         1 A1L       0.091700
     65 H14        175.6840   158.3140   121.7890 hx         1 A1L       0.091700
     66 H15        170.3280   161.2130   119.5370 h1         1 A1L       0.036200
     67 H16        171.9990   160.7030   119.6760 h1         1 A1L       0.036200
     68 H17        170.8330   159.4030   117.3340 h1         1 A1L       0.081700
     69 H18        166.9520   159.1600   119.0650 hc         1 A1L       0.063700
     70 H19        166.5440   157.7930   117.9590 hc         1 A1L       0.063700
     71 H20        167.2870   156.1960   119.7020 hc         1 A1L       0.059200
     72 H21        167.8550   157.5230   120.7170 hc         1 A1L       0.059200
     73 H22        165.5390   158.3850   120.9570 hc         1 A1L       0.035200
     74 H23        164.9210   157.0680   119.9600 hc         1 A1L       0.035200
     75 H24        165.6670   155.3870   121.6030 hc         1 A1L       0.043700
     76 H25        166.4720   156.6190   122.5660 hc         1 A1L       0.043700
     77 H26        163.4440   156.5850   122.0970 hc         1 A1L       0.037200
     78 H27        164.2310   155.7880   123.4550 hc         1 A1L       0.037200
     79 H28        165.1900   157.9830   124.2080 hc         1 A1L       0.038200
     80 H29        164.3630   158.8010   122.8840 hc         1 A1L       0.038200
     81 H30        162.1520   158.1170   123.8020 hc         1 A1L       0.037200
     82 H31        162.9490   157.2390   125.1110 hc         1 A1L       0.037200
     83 H32        163.9440   159.3550   125.9650 hc         1 A1L       0.036700
     84 H33        163.2270   160.2510   124.6250 hc         1 A1L       0.036700
     85 H34        160.9390   159.7580   125.4590 hc         1 A1L       0.037200
     86 H35        161.5920   158.7070   126.7100 hc         1 A1L       0.037200
     87 H36        160.9870   160.8120   127.7420 hc         1 A1L       0.040200
     88 H37        162.7360   160.6330   127.7780 hc         1 A1L       0.040200
     89 H38        162.9230   162.2110   125.8050 hc         1 A1L       0.036700
     90 H39        161.1770   162.3510   125.7680 hc         1 A1L       0.036700
     91 H40        162.1920   164.3100   126.8620 hc         1 A1L       0.034700
     92 H41        161.1400   163.4440   127.9680 hc         1 A1L       0.034700
     93 H42        163.1640   164.2220   129.1060 hc         1 A1L       0.036700
     94 H43        163.0810   162.4740   129.1550 hc         1 A1L       0.036700
     95 H44        164.7300   162.3690   127.2220 hc         1 A1L       0.038200
     96 H45        164.8560   164.1240   127.2640 hc         1 A1L       0.038200
     97 H46        165.5990   162.2080   129.5510 hc         1 A1L       0.038200
     98 H47        166.7350   162.9180   128.4130 hc         1 A1L       0.038200
     99 H48        166.1250   165.2230   129.2520 hc         1 A1L       0.035200
    100 H49        165.0480   164.4890   130.4430 hc         1 A1L       0.035200
    101 H50        167.2310   165.0600   131.4800 hc         1 A1L       0.031033
    102 H51        166.9910   163.2990   131.4950 hc         1 A1L       0.031033
    103 H52        168.0860   164.0390   130.3030 hc         1 A1L       0.031033
    104 H53        171.3440   157.2580   118.5850 h1         1 A1L       0.086200
    105 H54        172.6890   158.3740   118.5140 h1         1 A1L       0.086200
    106 H55        172.2690   157.9900   122.7750 hc         1 A1L       0.078700
    107 H56        170.7450   158.7060   122.8690 hc         1 A1L       0.078700
    108 H57        171.2210   155.6800   123.3450 hc         1 A1L       0.044700
    109 H58        171.1900   156.8890   124.6210 hc         1 A1L       0.044700
    110 H59        168.7860   157.4530   123.9720 hc         1 A1L       0.041700
    111 H60        168.8210   156.0950   122.8450 hc         1 A1L       0.041700
    112 H61        169.3080   154.5270   124.7470 hc         1 A1L       0.038200
    113 H62        169.2940   155.8920   125.8630 hc         1 A1L       0.038200
    114 H63        166.8700   156.3260   125.2710 hc         1 A1L       0.038700
    115 H64        166.9110   154.9520   124.1770 hc         1 A1L       0.038700
    116 H65        165.8180   154.3020   126.2560 hc         1 A1L       0.037700
    117 H66        167.2960   153.3810   126.0290 hc         1 A1L       0.037700
    118 H67        167.0570   153.9990   128.3690 hc         1 A1L       0.042700
    119 H68        168.4740   154.7830   127.7180 hc         1 A1L       0.042700
    120 H69        167.2110   156.9830   127.5640 ha         1 A1L       0.168000
    121 H70        165.6600   155.4530   129.7500 ha         1 A1L       0.163000
    122 H71        165.8790   157.8290   130.6750 hc         1 A1L       0.042200
    123 H72        165.8750   158.4620   129.0350 hc         1 A1L       0.042200
    124 H73        163.5760   157.6100   128.6640 hc         1 A1L       0.040200
    125 H74        163.5780   156.8320   130.2460 hc         1 A1L       0.040200
    126 H75        163.7990   159.0810   131.3530 hc         1 A1L       0.036700
    127 H76        163.7570   159.8580   129.7720 hc         1 A1L       0.036700
    128 H77        161.4530   158.8850   129.3830 hc         1 A1L       0.037700
    129 H78        161.5130   158.1380   130.9770 hc         1 A1L       0.037700
    130 H79        161.6860   160.4090   132.0390 hc         1 A1L       0.036200
    131 H80        161.6200   161.1600   130.4460 hc         1 A1L       0.036200
    132 H81        159.3890   161.2300   131.5440 hc         1 A1L       0.031033
    133 H82        159.3170   160.2220   130.0820 hc         1 A1L       0.031033
    134 H83        159.3800   159.4590   131.6890 hc         1 A1L       0.031033
@<TRIPOS>BOND
     1     1     2 1   
     2     2     3 1   
     3     2     4 1   
     4     2    11 1   
     5     4     5 1   
     6     5     6 1   
     7     5    53 1   
     8     5    54 1   
     9     6     7 1   
    10     6    55 1   
    11     6    56 1   
    12     7     8 1   
    13     7     9 1   
    14     7    10 1   
    15     8    57 1   
    16     8    58 1   
    17     8    59 1   
    18     9    60 1   
    19     9    61 1   
    20     9    62 1   
    21    10    63 1   
    22    10    64 1   
    23    10    65 1   
    24    11    12 1   
    25    12    13 1   
    26    12    66 1   
    27    12    67 1   
    28    13    14 1   
    29    13    34 1   
    30    13    68 1   
    31    14    15 1   
    32    15    16 2   
    33    15    17 1   
    34    17    18 1   
    35    17    69 1   
    36    17    70 1   
    37    18    19 1   
    38    18    71 1   
    39    18    72 1   
    40    19    20 1   
    41    19    73 1   
    42    19    74 1   
    43    20    21 1   
    44    20    75 1   
    45    20    76 1   
    46    21    22 1   
    47    21    77 1   
    48    21    78 1   
    49    22    23 1   
    50    22    79 1   
    51    22    80 1   
    52    23    24 1   
    53    23    81 1   
    54    23    82 1   
    55    24    25 1   
    56    24    83 1   
    57    24    84 1   
    58    25    26 1   
    59    25    85 1   
    60    25    86 1   
    61    26    27 1   
    62    26    87 1   
    63    26    88 1   
    64    27    28 1   
    65    27    89 1   
    66    27    90 1   
    67    28    29 1   
    68    28    91 1   
    69    28    92 1   
    70    29    30 1   
    71    29    93 1   
    72    29    94 1   
    73    30    31 1   
    74    30    95 1   
    75    30    96 1   
    76    31    32 1   
    77    31    97 1   
    78    31    98 1   
    79    32    33 1   
    80    32    99 1   
    81    32   100 1   
    82    33   101 1   
    83    33   102 1   
    84    33   103 1   
    85    34    35 1   
    86    34   104 1   
    87    34   105 1   
    88    35    36 1   
    89    36    37 2   
    90    36    38 1   
    91    38    39 1   
    92    38   106 1   
    93    38   107 1   
    94    39    40 1   
    95    39   108 1   
    96    39   109 1   
    97    40    41 1   
    98    40   110 1   
    99    40   111 1   
   100    41    42 1   
   101    41   112 1   
   102    41   113 1   
   103    42    43 1   
   104    42   114 1   
   105    42   115 1   
   106    43    44 1   
   107    43   116 1   
   108    43   117 1   
   109    44    45 1   
   110    44   118 1   
   111    44   119 1   
   112    45    46 2   
   113    45   120 1   
   114    46    47 1   
   115    46   121 1   
   116    47    48 1   
   117    47   122 1   
   118    47   123 1   
   119    48    49 1   
   120    48   124 1   
   121    48   125 1   
   122    49    50 1   
   123    49   126 1   
   124    49   127 1   
   125    50    51 1   
   126    50   128 1   
   127    50   129 1   
   128    51    52 1   
   129    51   130 1   
   130    51   131 1   
   131    52   132 1   
   132    52   133 1   
   133    52   134 1   
@<TRIPOS>SUBSTRUCTURE
     1 A1L         1 TEMP              0 ****  ****    0 ROOT
