@<TRIPOS>MOLECULE
A1L
   47    51     1     0     0
SMALL
No Charge or Current Charge


@<TRIPOS>ATOM
      1 C01        -12.5470    56.8770   144.6390 cc         1 A1L       0.052600
      2 C02        -11.3900    57.2990   143.7690 c3         1 A1L      -0.065900
      3 C03        -12.3590    56.2510   145.8530 cd         1 A1L      -0.345200
      4 C04        -13.4390    55.8130   146.7520 c          1 A1L       0.672300
      5 C05        -17.8610    56.0460   146.7360 ca         1 A1L      -0.034800
      6 C06        -17.3480    56.6840   147.8820 ca         1 A1L      -0.088000
      7 C07        -18.6450    54.8860   146.8840 ca         1 A1L      -0.088000
      8 C08        -18.9210    54.3730   148.1630 ca         1 A1L      -0.110500
      9 C09        -17.6220    56.1720   149.1620 ca         1 A1L      -0.110500
     10 C10        -18.4110    55.0170   149.3030 ca         1 A1L      -0.100000
     11 C11        -20.0770    57.0910   144.7110 c3         1 A1L       0.295800
     12 C12        -20.7700    55.7900   144.3100 ca         1 A1L      -0.088300
     13 C13        -20.4970    55.1850   143.0650 ca         1 A1L      -0.083000
     14 C14        -21.6860    55.1730   145.1880 ca         1 A1L      -0.083000
     15 C15        -21.1260    53.9790   142.7070 ca         1 A1L      -0.116000
     16 C16        -22.3130    53.9680   144.8290 ca         1 A1L      -0.116000
     17 O03        -13.2120    55.2610   147.8180 o          1 A1L      -0.482000
     18 O02        -14.7080    56.0570   146.3280 os         1 A1L      -0.323200
     19 CE3        -14.9890    56.6750   145.1420 ca         1 A1L       0.234100
     20 CZ3        -13.9520    57.0920   144.2720 ca         1 A1L      -0.184800
     21 CH2        -14.2940    57.7190   143.0380 ca         1 A1L      -0.037000
     22 CZ2        -15.6430    57.9240   142.6760 ca         1 A1L      -0.132000
     23 CE2        -16.6260    57.4960   143.5680 ca         1 A1L       0.102100
     24 O01        -17.9790    57.5860   143.4300 os         1 A1L      -0.140200
     25 CD2        -16.3200    56.8970   144.7650 ca         1 A1L      -0.138800
     26 CG         -17.5810    56.5860   145.4100 cc         1 A1L      -0.032400
     27 CD1        -18.5700    57.0460   144.5510 cd         1 A1L      -0.023100
     28 O04        -20.6450    58.1790   143.9690 oh         1 A1L      -0.641000
     29 C17        -22.0330    53.3700   143.5890 ca         1 A1L      -0.100000
     30 H021       -10.4270    57.0510   144.2320 hc         1 A1L       0.055033
     31 H023       -11.4280    56.7960   142.7960 hc         1 A1L       0.055033
     32 H022       -11.4050    58.3820   143.5970 hc         1 A1L       0.055033
     33 H032       -11.3680    56.0370   146.2320 ha         1 A1L       0.212000
     34 H061       -16.7400    57.5790   147.7770 ha         1 A1L       0.115500
     35 H071       -19.0290    54.3730   146.0060 ha         1 A1L       0.115500
     36 H081       -19.5270    53.4760   148.2700 ha         1 A1L       0.114500
     37 H091       -17.2240    56.6700   150.0430 ha         1 A1L       0.114500
     38 H101       -18.6240    54.6210   150.2940 ha         1 A1L       0.114000
     39 H111       -20.2700    57.2550   145.7810 h1         1 A1L       0.062700
     40 H131       -19.7970    55.6490   142.3740 ha         1 A1L       0.119500
     41 H141       -21.9090    55.6260   146.1520 ha         1 A1L       0.119500
     42 H151       -20.9090    53.5180   141.7460 ha         1 A1L       0.113000
     43 H161       -23.0160    53.4970   145.5130 ha         1 A1L       0.113000
     44 HH21       -13.5200    58.0500   142.3490 ha         1 A1L       0.122000
     45 HZ21       -15.9090    58.3980   141.7340 ha         1 A1L       0.140000
     46 H041       -20.0780    58.9580   144.1520 ho         1 A1L       0.452000
     47 H171       -22.5190    52.4360   143.3120 ha         1 A1L       0.112000
@<TRIPOS>BOND
     1     1     2 1   
     2     1     3 2   
     3     1    20 1   
     4     2    30 1   
     5     2    31 1   
     6     2    32 1   
     7     3     4 1   
     8     3    33 1   
     9     4    17 2   
    10     4    18 1   
    11     5     6 ar  
    12     5     7 ar  
    13     5    26 1   
    14     6     9 ar  
    15     6    34 1   
    16     7     8 ar  
    17     7    35 1   
    18     8    10 ar  
    19     8    36 1   
    20     9    10 ar  
    21     9    37 1   
    22    10    38 1   
    23    11    12 1   
    24    11    27 1   
    25    11    28 1   
    26    11    39 1   
    27    12    13 ar  
    28    12    14 ar  
    29    13    15 ar  
    30    13    40 1   
    31    14    16 ar  
    32    14    41 1   
    33    15    29 ar  
    34    15    42 1   
    35    16    29 ar  
    36    16    43 1   
    37    18    19 1   
    38    19    20 ar  
    39    19    25 ar  
    40    20    21 ar  
    41    21    22 ar  
    42    21    44 1   
    43    22    23 ar  
    44    22    45 1   
    45    23    24 1   
    46    23    25 ar  
    47    24    27 1   
    48    25    26 1   
    49    26    27 2   
    50    28    46 1   
    51    29    47 1   
@<TRIPOS>SUBSTRUCTURE
     1 A1L         1 TEMP              0 ****  ****    0 ROOT
