@<TRIPOS>MOLECULE
A1L
   38    38     1     0     0
SMALL
No Charge or Current Charge


@<TRIPOS>ATOM
      1 C1         115.6140   105.2550   160.5420 c3         1 A1L      -0.076350
      2 C10        119.6330   109.7460   159.2650 c3         1 A1L      -0.017400
      3 C11        120.9760   109.1720   158.7580 c3         1 A1L      -0.076350
      4 C12        119.8170   111.1400   159.9050 c3         1 A1L      -0.076350
      5 C13        116.1280   109.8540   158.9340 c3         1 A1L       0.470600
      6 C2         115.5990   106.8000   160.6070 c3         1 A1L      -0.017400
      7 C3         114.5800   107.3150   161.6480 c3         1 A1L      -0.076350
      8 C4         117.0030   107.3730   160.8730 ca         1 A1L      -0.104800
      9 C5         117.6240   108.2810   159.9760 ca         1 A1L       0.183100
     10 C6         118.9280   108.7790   160.2320 ca         1 A1L      -0.104800
     11 C7         119.5900   108.3760   161.4110 ca         1 A1L      -0.110500
     12 C8         118.9760   107.4930   162.3080 ca         1 A1L      -0.170000
     13 C9         117.6950   106.9920   162.0420 ca         1 A1L      -0.110500
     14 O1         116.9520   108.6860   158.8470 os         1 A1L      -0.417100
     15 O2         115.5670   110.0360   157.6490 os         1 A1L      -0.559400
     16 O3         114.0960   111.3390   156.0890 o          1 A1L      -0.914500
     17 O4         113.4380   111.1590   158.4170 o          1 A1L      -0.914500
     18 O5         115.3400   112.5490   157.7840 o          1 A1L      -0.914500
     19 P1         114.5940   111.2960   157.4900 p5         1 A1L       1.269900
     20 H1         114.6260   104.8730   160.2570 hc         1 A1L       0.023117
     21 H2         116.3390   104.9100   159.7960 hc         1 A1L       0.023117
     22 H3         115.8800   104.8150   161.5100 hc         1 A1L       0.023117
     23 H4         119.0180   109.8960   158.3690 hc         1 A1L       0.110700
     24 H5         120.8240   108.1850   158.3040 hc         1 A1L       0.023117
     25 H6         121.4140   109.8300   157.9980 hc         1 A1L       0.023117
     26 H7         121.7010   109.0670   159.5740 hc         1 A1L       0.023117
     27 H8         118.8510   111.5440   160.2310 hc         1 A1L       0.023117
     28 H9         120.4790   111.0910   160.7780 hc         1 A1L       0.023117
     29 H10        120.2530   111.8420   159.1840 hc         1 A1L       0.023117
     30 H11        116.7320   110.7210   159.2260 h2         1 A1L      -0.008800
     31 H12        115.3450   109.7080   159.6870 h2         1 A1L      -0.008800
     32 H13        115.2370   107.1340   159.6270 hc         1 A1L       0.110700
     33 H14        114.5620   108.4110   161.6580 hc         1 A1L       0.023117
     34 H15        113.5710   106.9610   161.4080 hc         1 A1L       0.023117
     35 H16        114.8340   106.9670   162.6560 hc         1 A1L       0.023117
     36 H17        120.5850   108.7510   161.6380 ha         1 A1L       0.087500
     37 H18        119.4970   107.1920   163.2140 ha         1 A1L       0.080000
     38 H19        117.2380   106.3070   162.7520 ha         1 A1L       0.087500
@<TRIPOS>BOND
     1     1     6 1   
     2     1    20 1   
     3     1    21 1   
     4     1    22 1   
     5     2     3 1   
     6     2     4 1   
     7     2    10 1   
     8     2    23 1   
     9     3    24 1   
    10     3    25 1   
    11     3    26 1   
    12     4    27 1   
    13     4    28 1   
    14     4    29 1   
    15     5    14 1   
    16     5    15 1   
    17     5    30 1   
    18     5    31 1   
    19     6     7 1   
    20     6     8 1   
    21     6    32 1   
    22     7    33 1   
    23     7    34 1   
    24     7    35 1   
    25     8     9 ar  
    26     8    13 ar  
    27     9    10 ar  
    28     9    14 1   
    29    10    11 ar  
    30    11    12 ar  
    31    11    36 1   
    32    12    13 ar  
    33    12    37 1   
    34    13    38 1   
    35    15    19 1   
    36    16    19 1   
    37    17    19 1   
    38    18    19 1   
@<TRIPOS>SUBSTRUCTURE
     1 A1L         1 TEMP              0 ****  ****    0 ROOT
