@<TRIPOS>MOLECULE
A1L
   27    27     1     0     0
SMALL
No Charge or Current Charge


@<TRIPOS>ATOM
      1 C10        -10.0600    18.4550   -27.1420 c          1 A1L       0.584100
      2 N12        -10.3550    19.7990   -27.1410 ns         1 A1L      -0.459900
      3 C01         -8.3710    17.9540   -31.4170 ca         1 A1L      -0.183000
      4 C02         -8.6540    16.6070   -31.6810 ca         1 A1L       0.224100
      5 C03         -8.9380    15.7160   -30.6160 ca         1 A1L      -0.294200
      6 C04         -8.9270    16.2210   -29.2910 ca         1 A1L       0.010000
      7 C05         -8.6400    17.5750   -29.0310 ca         1 A1L      -0.096300
      8 C06         -8.3640    18.4410   -30.1020 ca         1 A1L      -0.013000
      9 C08        -11.6160    21.9340   -26.6710 c          1 A1L       0.714000
     10 C09         -8.6390    18.0970   -27.5960 c3         1 A1L      -0.123100
     11 C18        -11.6640    20.3830   -26.7630 c3         1 A1L      -0.062000
     12 O13        -10.8350    22.5380   -27.3950 o          1 A1L      -0.726500
     13 O14        -12.3280    22.4830   -25.8430 o          1 A1L      -0.726500
     14 O15         -9.4630    13.5560   -29.8470 o          1 A1L      -0.423500
     15 O16         -9.2730    13.8370   -31.9980 o          1 A1L      -0.423500
     16 O17        -10.8790    17.6060   -26.8110 o          1 A1L      -0.647100
     17 H121        -9.6220    20.4330   -27.4440 hn         1 A1L       0.339500
     18 H011        -8.1560    18.6300   -32.2410 ha         1 A1L       0.134000
     19 H041        -9.1450    15.5670   -28.4460 ha         1 A1L       0.155000
     20 H061        -8.1430    19.4910   -29.9180 ha         1 A1L       0.128000
     21 H091        -8.2420    17.3240   -26.9280 hc         1 A1L       0.062700
     22 H092        -7.9970    18.9840   -27.5360 hc         1 A1L       0.062700
     23 H182       -12.4130    20.1040   -27.5140 h1         1 A1L       0.037700
     24 H181       -11.9700    19.9800   -25.7890 h1         1 A1L       0.037700
     25 H071        -8.8660    15.2450   -32.9910 ho         1 A1L       0.512000
     26 N11         -9.2480    14.2660   -30.8360 no         1 A1L       0.707200
     27 O07         -8.6430    16.2060   -32.9830 oh         1 A1L      -0.532100
@<TRIPOS>BOND
     1     1     2 1   
     2     1    10 1   
     3     1    16 2   
     4     2    11 1   
     5     2    17 1   
     6     3     4 ar  
     7     3     8 ar  
     8     3    18 1   
     9     4     5 ar  
    10     4    27 1   
    11     5     6 ar  
    12     5    26 1   
    13     6     7 ar  
    14     6    19 1   
    15     7     8 ar  
    16     7    10 1   
    17     8    20 1   
    18     9    11 1   
    19     9    12 1   
    20     9    13 1   
    21    10    21 1   
    22    10    22 1   
    23    11    23 1   
    24    11    24 1   
    25    14    26 1   
    26    15    26 1   
    27    25    27 1   
@<TRIPOS>SUBSTRUCTURE
     1 A1L         1 TEMP              0 ****  ****    0 ROOT
