@<TRIPOS>MOLECULE
A1L
   55    59     1     0     0
SMALL
No Charge or Current Charge


@<TRIPOS>ATOM
      1 C02        -24.4890    -6.0630   -65.9400 c6         1 A1L       0.173800
      2 C03        -23.3530    -5.2220   -66.5570 c6         1 A1L      -0.038200
      3 C04        -22.0070    -5.8610   -66.3130 cc         1 A1L       0.154800
      4 C05        -21.8210    -6.8560   -65.3810 cd         1 A1L      -0.256400
      5 C06        -22.9700    -7.4050   -64.5580 c6         1 A1L       0.227000
      6 C07        -20.5260    -7.4830   -65.1390 c          1 A1L       0.716700
      7 C10        -24.4800    -7.8810   -59.6490 ca         1 A1L      -0.106000
      8 C12        -24.9820    -8.6720   -61.8970 ca         1 A1L      -0.093500
      9 C13        -25.0200    -7.3430   -62.3650 ca         1 A1L      -0.090300
     10 C14        -24.7850    -6.2860   -61.4640 ca         1 A1L      -0.093500
     11 C18        -20.7310    -4.4390   -68.0030 c5         1 A1L       0.206800
     12 C19        -19.2050    -4.3970   -68.3550 c5         1 A1L       0.211800
     13 C21        -19.6370    -6.0490   -66.7480 cc         1 A1L       0.878100
     14 C23        -16.3960    -4.4450   -67.1790 ca         1 A1L      -0.124300
     15 C24        -15.6050    -4.0500   -68.2780 ca         1 A1L      -0.099000
     16 C26        -14.8850    -2.0630   -67.0790 ca         1 A1L      -0.097000
     17 C28        -16.4300    -3.6320   -66.0170 ca         1 A1L      -0.048300
     18 C29        -17.2810    -4.0060   -64.8050 c3         1 A1L      -0.055800
     19 N16        -19.4810    -7.0010   -65.8820 nd         1 A1L      -0.756100
     20 C09        -24.5160    -6.5540   -60.1100 ca         1 A1L      -0.113000
     21 C11        -24.7130    -8.9400   -60.5440 ca         1 A1L      -0.113000
     22 C25        -14.8530    -2.8650   -68.2280 ca         1 A1L      -0.119000
     23 C27        -15.6710    -2.4450   -65.9800 ca         1 A1L      -0.118000
     24 N01        -24.1440    -6.4870   -64.5620 n3         1 A1L      -0.728600
     25 N17        -20.8480    -5.4720   -66.9960 na         1 A1L      -0.649400
     26 N20        -18.6460    -5.5150   -67.5100 nh         1 A1L      -0.772600
     27 O08        -20.3270    -8.3850   -64.3420 o          1 A1L      -0.574100
     28 H1         -25.4110    -5.4630   -65.9460 h1         1 A1L       0.037200
     29 H2         -23.3700    -4.2180   -66.1130 hc         1 A1L       0.058700
     30 H3         -23.2550    -8.3900   -64.9600 h1         1 A1L       0.061200
     31 H5         -25.1590    -9.4990   -62.5830 ha         1 A1L       0.114500
     32 H6         -24.8070    -5.2580   -61.8170 ha         1 A1L       0.114500
     33 H9         -21.0760    -3.4710   -67.6170 h1         1 A1L       0.063700
     34 H10        -19.0350    -4.5700   -69.4260 h1         1 A1L       0.063200
     35 H13        -15.5760    -4.6610   -69.1770 ha         1 A1L       0.110000
     36 H14        -14.3030    -1.1450   -67.0390 ha         1 A1L       0.114000
     37 H15        -17.0370    -5.0100   -64.4400 hc         1 A1L       0.051033
     38 H16        -17.1260    -3.3130   -63.9700 hc         1 A1L       0.051033
     39 H17        -18.3490    -3.9840   -65.0510 hc         1 A1L       0.051033
     40 H18        -24.3340    -5.7340   -59.4190 ha         1 A1L       0.111500
     41 H19        -24.6850    -9.9680   -60.1880 ha         1 A1L       0.111500
     42 H20        -14.2470    -2.5700   -69.0820 ha         1 A1L       0.115000
     43 H21        -15.6900    -1.8110   -65.0960 ha         1 A1L       0.114000
     44 H22        -24.6720    -6.9450   -66.5730 h1         1 A1L       0.037200
     45 H23        -23.5440    -5.0910   -67.6300 hc         1 A1L       0.058700
     46 H24        -22.6330    -7.5720   -63.5240 h1         1 A1L       0.061200
     47 H25        -21.3310    -4.6890   -68.8880 h1         1 A1L       0.063700
     48 H26        -18.7680    -3.4250   -68.0890 h1         1 A1L       0.063200
     49 C15        -25.3080    -7.0470   -63.8350 c3         1 A1L       0.219100
     50 C22        -17.2080    -5.7390   -67.2790 c3         1 A1L       0.297100
     51 H4         -24.2720    -8.0890   -58.6020 ha         1 A1L       0.111000
     52 H7         -26.1450    -6.3360   -63.8750 h1         1 A1L       0.037200
     53 H8         -25.6520    -7.9660   -64.3290 h1         1 A1L       0.037200
     54 H11        -17.0420    -6.3250   -66.3650 h1         1 A1L       0.074700
     55 H12        -16.8070    -6.3470   -68.1010 h1         1 A1L       0.074700
@<TRIPOS>BOND
     1     1     2 1   
     2     1    24 1   
     3     1    28 1   
     4     1    44 1   
     5     2     3 1   
     6     2    29 1   
     7     2    45 1   
     8     3     4 2   
     9     3    25 1   
    10     4     5 1   
    11     4     6 1   
    12     5    24 1   
    13     5    30 1   
    14     5    46 1   
    15     6    19 1   
    16     6    27 2   
    17     7    20 ar  
    18     7    21 ar  
    19     7    51 1   
    20     8     9 ar  
    21     8    21 ar  
    22     8    31 1   
    23     9    10 ar  
    24     9    49 1   
    25    10    20 ar  
    26    10    32 1   
    27    11    12 1   
    28    11    25 1   
    29    11    33 1   
    30    11    47 1   
    31    12    26 1   
    32    12    34 1   
    33    12    48 1   
    34    13    19 2   
    35    13    25 1   
    36    13    26 1   
    37    14    15 ar  
    38    14    17 ar  
    39    14    50 1   
    40    15    22 ar  
    41    15    35 1   
    42    16    22 ar  
    43    16    23 ar  
    44    16    36 1   
    45    17    18 1   
    46    17    23 ar  
    47    18    37 1   
    48    18    38 1   
    49    18    39 1   
    50    20    40 1   
    51    21    41 1   
    52    22    42 1   
    53    23    43 1   
    54    24    49 1   
    55    26    50 1   
    56    49    52 1   
    57    49    53 1   
    58    50    54 1   
    59    50    55 1   
@<TRIPOS>SUBSTRUCTURE
     1 A1L         1 TEMP              0 ****  ****    0 ROOT
