@<TRIPOS>MOLECULE
A1L
   56    60     1     0     0
SMALL
abcg2


@<TRIPOS>ATOM
      1 C10        -67.1300   -36.0010   -35.9460 cp         1 A1L      -0.090500
      2 C13        -68.2040   -33.8530   -37.3680 ca         1 A1L      -0.057000
      3 C20        -65.0510   -37.5190   -33.4160 ca         1 A1L       0.664900
      4 C22        -63.6590   -35.6800   -32.6580 c6         1 A1L       0.220300
      5 C24        -62.2170   -36.0160   -30.6050 c6         1 A1L       0.155500
      6 C26        -62.8340   -37.4080   -30.4800 c6         1 A1L      -0.102400
      7 C28        -65.2880   -38.9370   -33.5450 ca         1 A1L       0.148000
      8 C02        -69.7470   -39.7010   -38.2750 ca         1 A1L      -0.069300
      9 C03        -68.5650   -39.0660   -38.6450 ca         1 A1L      -0.115000
     10 C04        -67.6390   -38.6620   -37.6930 ca         1 A1L      -0.084000
     11 C05        -69.9720   -39.9210   -36.9170 ca         1 A1L      -0.115000
     12 C06        -69.0490   -39.5240   -35.9640 ca         1 A1L      -0.084000
     13 C07        -67.8720   -38.8800   -36.3380 cq         1 A1L      -0.027000
     14 C08        -66.9030   -38.4220   -35.3210 cq         1 A1L      -0.081000
     15 C09        -66.5370   -37.1060   -35.1510 cp         1 A1L       0.449500
     16 C11        -68.5090   -35.8960   -36.1360 ca         1 A1L      -0.106000
     17 C12        -69.0440   -34.8330   -36.8360 ca         1 A1L      -0.052000
     18 C14        -68.7240   -32.7470   -38.0950 cg         1 A1L       0.329000
     19 C16        -66.8350   -33.9690   -37.1640 ca         1 A1L       0.202000
     20 C18        -66.2890   -35.0150   -36.4560 ca         1 A1L      -0.125000
     21 C23        -62.2610   -35.5750   -32.0620 c6         1 A1L      -0.102400
     22 C27        -64.2180   -37.4490   -31.1020 c6         1 A1L       0.220300
     23 C29        -66.2380   -39.3680   -34.4920 ca         1 A1L       0.282000
     24 C31        -65.7880   -41.5230   -33.9320 ca         1 A1L       0.318900
     25 C32        -64.8030   -41.0870   -33.0220 ca         1 A1L       0.276900
     26 F17        -66.0410   -33.0260   -37.6700 f          1 A1L      -0.162000
     27 N15        -69.1560   -31.8550   -38.6820 n1         1 A1L      -0.439000
     28 N19        -65.6390   -36.6840   -34.2370 nb         1 A1L      -0.764000
     29 N21        -64.1640   -37.0340   -32.5020 nh         1 A1L      -0.758300
     30 N30        -66.4790   -40.6880   -34.6570 nb         1 A1L      -0.626000
     31 N33        -64.5620   -39.8180   -32.8390 nb         1 A1L      -0.607000
     32 H221       -63.6320   -35.4260   -33.7150 h1         1 A1L       0.051700
     33 H222       -64.3290   -34.9580   -32.1730 h1         1 A1L       0.051700
     34 H241       -62.8420   -35.3230   -30.0270 h1         1 A1L       0.057700
     35 H262       -62.9060   -37.6960   -29.4280 hc         1 A1L       0.054950
     36 H261       -62.1910   -38.1440   -30.9760 hc         1 A1L       0.054950
     37 H012       -70.5900   -41.2190   -39.5400 hc         1 A1L       0.043033
     38 H011       -71.7620   -40.0560   -38.9460 hc         1 A1L       0.043033
     39 H013       -70.6420   -39.6050   -40.2330 hc         1 A1L       0.043033
     40 H031       -68.3610   -38.8830   -39.6940 ha         1 A1L       0.112000
     41 H041       -66.7270   -38.1710   -38.0090 ha         1 A1L       0.115000
     42 H051       -70.8870   -40.4080   -36.5990 ha         1 A1L       0.112000
     43 H061       -69.2560   -39.6980   -34.9150 ha         1 A1L       0.115000
     44 H111       -69.1750   -36.6380   -35.7210 ha         1 A1L       0.134000
     45 H121       -70.1130   -34.7500   -36.9710 ha         1 A1L       0.131000
     46 H181       -65.2180   -35.0640   -36.3080 ha         1 A1L       0.148000
     47 H231       -61.5760   -36.1980   -32.6480 hc         1 A1L       0.054950
     48 H232       -61.9140   -34.5430   -32.1520 hc         1 A1L       0.054950
     49 H271       -64.8800   -36.7580   -30.5600 h1         1 A1L       0.051700
     50 H272       -64.6450   -38.4410   -31.0120 h1         1 A1L       0.051700
     51 H311       -65.9830   -42.5820   -34.0570 h4         1 A1L       0.033100
     52 H321       -64.2160   -41.8050   -32.4610 h4         1 A1L       0.033100
     53 N25        -60.8600   -35.9020   -30.0910 n8         1 A1L      -0.985200
     54 C01        -70.7380   -40.1640   -39.3030 c3         1 A1L      -0.047800
     55 H1         -60.8470   -36.1710   -29.1140 hn         1 A1L       0.392000
     56 H252       -60.2700   -36.5770   -30.5640 hn         1 A1L       0.392000
@<TRIPOS>BOND
     1     1    15 1   
     2     1    16 ar  
     3     1    20 ar  
     4     2    17 ar  
     5     2    18 1   
     6     2    19 ar  
     7     3     7 ar  
     8     3    28 ar  
     9     3    29 1   
    10     4    21 1   
    11     4    29 1   
    12     4    32 1   
    13     4    33 1   
    14     5     6 1   
    15     5    21 1   
    16     5    34 1   
    17     5    53 1   
    18     6    22 1   
    19     6    35 1   
    20     6    36 1   
    21     7    23 ar  
    22     7    31 ar  
    23     8     9 ar  
    24     8    11 ar  
    25     8    54 1   
    26     9    10 ar  
    27     9    40 1   
    28    10    13 1   
    29    10    41 1   
    30    11    12 ar  
    31    11    42 1   
    32    12    13 2   
    33    12    43 1   
    34    13    14 1   
    35    14    15 2   
    36    14    23 1   
    37    15    28 ar  
    38    16    17 ar  
    39    16    44 1   
    40    17    45 1   
    41    18    27 3   
    42    19    20 ar  
    43    19    26 1   
    44    20    46 1   
    45    21    47 1   
    46    21    48 1   
    47    22    29 1   
    48    22    49 1   
    49    22    50 1   
    50    23    30 ar  
    51    24    25 ar  
    52    24    30 ar  
    53    24    51 1   
    54    25    31 ar  
    55    25    52 1   
    56    37    54 1   
    57    38    54 1   
    58    39    54 1   
    59    53    55 1   
    60    53    56 1   
@<TRIPOS>SUBSTRUCTURE
     1 A1L         1 TEMP              0 ****  ****    0 ROOT
