@<TRIPOS>MOLECULE
A1L
  137   142     1     0     0
SMALL
abcg2


@<TRIPOS>ATOM
      1 C14        195.2350   158.5000   179.3660 c3         1 A1L      -0.067400
      2 C15        195.1480   157.4770   180.5040 c3         1 A1L      -0.038200
      3 C16        194.3250   157.9210   181.6710 c2         1 A1L      -0.217200
      4 C17        194.7180   158.1350   182.9300 c2         1 A1L      -0.113400
      5 C18        196.1220   157.9460   183.4280 c3         1 A1L      -0.053900
      6 C19        193.7330   158.6250   183.9580 c3         1 A1L      -0.040200
      7 C20        194.0690   160.0120   184.5120 c3         1 A1L      -0.073400
      8 C21        192.9720   160.5430   185.4280 c3         1 A1L      -0.073400
      9 C22        193.3300   161.8200   186.1880 c3         1 A1L      -0.061700
     10 C01        194.6830   166.0730   182.0850 c3         1 A1L       0.202800
     11 C02        194.1940   165.4960   180.7930 c2         1 A1L      -0.267200
     12 C03        194.1230   164.1950   180.4920 c2         1 A1L      -0.078400
     13 C04        193.6240   163.7710   179.1420 c3         1 A1L      -0.060900
     14 C05        194.5000   163.1000   181.4520 c3         1 A1L      -0.048200
     15 C07        194.8910   160.8620   180.2320 c3         1 A1L      -0.075400
     16 C08        195.9100   159.8310   179.7380 c3         1 A1L      -0.058700
     17 C09        196.7000   160.3710   178.5470 c3         1 A1L      -0.089100
     18 C23        192.1680   162.2510   187.0780 c3         1 A1L      -0.087100
     19 C24        191.6830   169.8410   186.0380 ce         1 A1L       0.427600
     20 C26        187.6920   170.7240   187.4630 cc         1 A1L       0.007200
     21 C27        189.3270   173.7470   190.2320 cf         1 A1L       0.161400
     22 C28        193.2760   172.9850   188.8270 cc         1 A1L       0.013000
     23 C30        193.7310   162.9540   185.2510 c3         1 A1L      -0.087100
     24 C31        191.4050   168.7680   185.0120 c5         1 A1L      -0.135000
     25 C33        186.3150   170.8620   187.8670 cd         1 A1L      -0.038300
     26 C34        189.5310   174.8740   191.2230 c5         1 A1L      -0.029300
     27 C35        194.5920   172.7690   188.3720 cc         1 A1L      -0.019200
     28 C37        189.8690   168.7980   184.9280 c5         1 A1L      -0.065500
     29 C38        186.2710   171.8250   188.8450 cd         1 A1L      -0.184600
     30 C39        191.0340   174.9430   191.2700 ce         1 A1L      -0.196800
     31 C40        194.4880   171.7530   187.4140 cd         1 A1L      -0.266200
     32 C41        189.5080   169.7030   186.0830 cf         1 A1L       0.174400
     33 C42        187.6220   172.3050   189.0700 cc         1 A1L       0.012200
     34 C43        191.5020   174.0370   190.2070 ce         1 A1L       0.407900
     35 C44        193.1470   171.3790   187.3030 cd         1 A1L       0.102000
     36 C45        191.9460   167.3950   185.4260 c3         1 A1L      -0.058400
     37 C46        185.0740   172.3400   189.5460 c          1 A1L       0.599700
     38 C47        191.7880   175.6480   192.1150 c2         1 A1L      -0.184200
     39 C48        195.2690   170.9510   186.5050 c          1 A1L       0.629300
     40 C49        191.7600   166.3150   184.3520 c3         1 A1L      -0.142400
     41 C50        183.8830   171.4350   189.7050 c3         1 A1L      -0.193100
     42 C52        191.2900   176.5130   193.2240 c3         1 A1L      -0.058900
     43 C53        194.2660   169.9520   185.8400 c5         1 A1L      -0.192500
     44 C56        192.6130   166.5750   183.1380 c          1 A1L       0.595100
     45 C57        194.4620   169.9890   184.3440 c          1 A1L       0.609100
     46 C58        192.9030   170.3590   186.3640 ce         1 A1L      -0.129800
     47 C59        188.1760   169.8830   186.4850 ce         1 A1L      -0.245200
     48 C60        188.0330   173.2640   189.9700 ce         1 A1L      -0.209200
     49 C61        192.8040   173.8810   189.8060 cf         1 A1L      -0.196600
     50 C62        189.3490   169.3430   183.6000 c3         1 A1L      -0.082100
     51 C64        188.8890   176.1720   190.7220 c3         1 A1L      -0.077100
     52 C65        195.8220   173.4880   188.8040 c3         1 A1L      -0.030900
     53 N10        190.5480   170.2950   186.6310 nf         1 A1L      -0.618300
     54 N11        188.4160   171.5920   188.2240 na         1 A1L      -0.169000
     55 N12        190.4460   173.3450   189.6700 nf         1 A1L      -0.614300
     56 N13        192.4360   172.1250   188.1490 na         1 A1L      -0.507000
     57 O25        192.3090   167.3230   182.2390 o          1 A1L      -0.499000
     58 O29        195.1480   169.2030   183.7420 o          1 A1L      -0.481000
     59 O32        193.7580   165.9100   183.1820 os         1 A1L      -0.440100
     60 O36        193.8350   171.0090   183.7870 os         1 A1L      -0.427100
     61 O51        185.0560   173.4680   189.9950 o          1 A1L      -0.516100
     62 O54        196.4520   170.9810   186.2530 o          1 A1L      -0.508100
     63 H1         195.7920   158.0270   178.5520 hc         1 A1L       0.037700
     64 H2         194.2350   158.6970   178.9640 hc         1 A1L       0.037700
     65 H3         194.7110   156.5590   180.0950 hc         1 A1L       0.042700
     66 H4         196.1620   157.2170   180.8130 hc         1 A1L       0.042700
     67 H5         193.2760   158.1020   181.4410 ha         1 A1L       0.163000
     68 H6         196.1260   157.3510   184.3450 hc         1 A1L       0.038700
     69 H7         196.7700   157.4510   182.7080 hc         1 A1L       0.038700
     70 H8         196.5850   158.9030   183.6770 hc         1 A1L       0.038700
     71 H9         192.7300   158.6490   183.5230 hc         1 A1L       0.041700
     72 H10        193.6910   157.9170   184.7960 hc         1 A1L       0.041700
     73 H11        195.0140   159.9770   185.0630 hc         1 A1L       0.041700
     74 H12        194.2240   160.6990   183.6750 hc         1 A1L       0.041700
     75 H13        192.0660   160.7220   184.8360 hc         1 A1L       0.035700
     76 H14        192.7110   159.7660   186.1550 hc         1 A1L       0.035700
     77 H15        194.1870   161.5940   186.8350 hc         1 A1L       0.044700
     78 H16        195.5870   165.5760   182.4360 h1         1 A1L       0.070700
     79 H17        194.9140   167.1320   181.9640 h1         1 A1L       0.070700
     80 H18        193.8710   166.2130   180.0460 ha         1 A1L       0.184000
     81 H19        193.2830   164.6220   178.5540 hc         1 A1L       0.042367
     82 H20        194.4060   163.2640   178.5720 hc         1 A1L       0.042367
     83 H21        192.7960   163.0640   179.2320 hc         1 A1L       0.042367
     84 H22        193.5870   162.5700   181.7490 hc         1 A1L       0.050700
     85 H23        194.8920   163.5330   182.3720 hc         1 A1L       0.050700
     86 H26        194.2690   161.1630   179.3830 hc         1 A1L       0.040700
     87 H27        194.2140   160.3890   180.9480 hc         1 A1L       0.040700
     88 H28        196.6200   159.6370   180.5530 hc         1 A1L       0.048700
     89 H29        197.1890   161.3200   178.7710 hc         1 A1L       0.031033
     90 H30        197.4760   159.6690   178.2360 hc         1 A1L       0.031033
     91 H31        196.0410   160.5340   177.6900 hc         1 A1L       0.031033
     92 H32        191.8670   161.4510   187.7570 hc         1 A1L       0.032033
     93 H33        192.4320   163.1200   187.6830 hc         1 A1L       0.032033
     94 H34        191.2970   162.5200   186.4770 hc         1 A1L       0.032033
     95 H35        193.9110   163.8780   185.8040 hc         1 A1L       0.032033
     96 H36        194.6400   162.7280   184.6920 hc         1 A1L       0.032033
     97 H37        192.9380   163.1520   184.5250 hc         1 A1L       0.032033
     98 H38        191.4280   167.0700   186.3310 hc         1 A1L       0.055700
     99 H39        193.0040   167.4590   185.6870 hc         1 A1L       0.055700
    100 H40        192.8690   175.5920   192.0180 ha         1 A1L       0.172000
    101 H43        190.7170   166.2760   184.0330 hc         1 A1L       0.070700
    102 H44        192.0050   165.3440   184.7830 hc         1 A1L       0.070700
    103 H45        183.2640   171.7900   190.5270 hc         1 A1L       0.064700
    104 H46        183.2740   171.4540   188.7990 hc         1 A1L       0.064700
    105 H47        184.1680   170.4010   189.8870 hc         1 A1L       0.064700
    106 H48        191.8100   176.2770   194.1540 hc         1 A1L       0.042700
    107 H49        191.4900   177.5680   193.0190 hc         1 A1L       0.042700
    108 H50        190.2210   176.4050   193.3990 hc         1 A1L       0.042700
    109 H51        194.5410   168.9500   186.1810 hc         1 A1L       0.108700
    110 H52        193.3490   172.0170   182.1070 h1         1 A1L       0.051700
    111 H53        194.9910   171.3380   182.0780 h1         1 A1L       0.051700
    112 H54        193.5830   170.2750   181.8500 h1         1 A1L       0.051700
    113 H55        187.4440   169.2830   185.9620 ha         1 A1L       0.192000
    114 H56        187.2490   173.7250   190.5490 ha         1 A1L       0.214000
    115 H57        193.5530   174.4980   190.2860 ha         1 A1L       0.191000
    116 H58        189.6650   168.6970   182.7800 hc         1 A1L       0.045367
    117 H59        188.2600   169.3940   183.5860 hc         1 A1L       0.045367
    118 H60        189.7390   170.3440   183.4100 hc         1 A1L       0.045367
    119 H61        184.8360   169.3140   187.9470 hc         1 A1L       0.055700
    120 H62        184.3530   170.7210   187.0110 hc         1 A1L       0.055700
    121 H63        185.5020   169.5810   186.3470 hc         1 A1L       0.055700
    122 H64        189.0980   176.9940   191.4050 hc         1 A1L       0.043367
    123 H65        189.2770   176.4410   189.7390 hc         1 A1L       0.043367
    124 H66        187.8060   176.0700   190.6450 hc         1 A1L       0.043367
    125 H67        196.1300   174.2220   188.0580 hc         1 A1L       0.047700
    126 H68        195.6790   174.0180   189.7440 hc         1 A1L       0.047700
    127 H69        196.6530   172.7960   188.9340 hc         1 A1L       0.047700
    128 H73        191.8410   169.0540   184.0520 hc         1 A1L       0.092700
    129 H74        189.1000   174.6150   192.1950 hc         1 A1L       0.078700
    130 H75        189.4410   167.8040   185.0900 hc         1 A1L       0.067700
    131 H41        189.4160   171.6880   188.1530 hn         1 A1L       0.394000
    132 H42        191.4420   172.1010   188.3190 hn         1 A1L       0.550000
    133 C06        195.5150   162.0780   180.9100 c3         1 A1L      -0.070400
    134 C63        185.1980   170.0830   187.2620 c3         1 A1L      -0.046800
    135 H24        196.1140   161.7170   181.7520 hc         1 A1L       0.039700
    136 C55        193.9570   171.1560   182.3700 c3         1 A1L       0.145900
    137 H25        196.2180   162.5840   180.2420 hc         1 A1L       0.039700
@<TRIPOS>BOND
     1     1     2 1   
     2     1    16 1   
     3     1    63 1   
     4     1    64 1   
     5     2     3 1   
     6     2    65 1   
     7     2    66 1   
     8     3     4 2   
     9     3    67 1   
    10     4     5 1   
    11     4     6 1   
    12     5    68 1   
    13     5    69 1   
    14     5    70 1   
    15     6     7 1   
    16     6    71 1   
    17     6    72 1   
    18     7     8 1   
    19     7    73 1   
    20     7    74 1   
    21     8     9 1   
    22     8    75 1   
    23     8    76 1   
    24     9    18 1   
    25     9    23 1   
    26     9    77 1   
    27    10    11 1   
    28    10    59 1   
    29    10    78 1   
    30    10    79 1   
    31    11    12 2   
    32    11    80 1   
    33    12    13 1   
    34    12    14 1   
    35    13    81 1   
    36    13    82 1   
    37    13    83 1   
    38    14    84 1   
    39    14    85 1   
    40    14   133 1   
    41    15    16 1   
    42    15    86 1   
    43    15    87 1   
    44    15   133 1   
    45    16    17 1   
    46    16    88 1   
    47    17    89 1   
    48    17    90 1   
    49    17    91 1   
    50    18    92 1   
    51    18    93 1   
    52    18    94 1   
    53    19    24 1   
    54    19    46 1   
    55    19    53 2   
    56    20    25 2   
    57    20    47 1   
    58    20    54 1   
    59    21    26 1   
    60    21    48 2   
    61    21    55 1   
    62    22    27 1   
    63    22    49 2   
    64    22    56 1   
    65    23    95 1   
    66    23    96 1   
    67    23    97 1   
    68    24    28 1   
    69    24    36 1   
    70    24   128 1   
    71    25    29 1   
    72    25   134 1   
    73    26    30 1   
    74    26    51 1   
    75    26   129 1   
    76    27    31 2   
    77    27    52 1   
    78    28    32 1   
    79    28    50 1   
    80    28   130 1   
    81    29    33 2   
    82    29    37 1   
    83    30    34 1   
    84    30    38 2   
    85    31    35 1   
    86    31    39 1   
    87    32    47 2   
    88    32    53 1   
    89    33    48 1   
    90    33    54 1   
    91    34    49 1   
    92    34    55 2   
    93    35    46 2   
    94    35    56 1   
    95    36    40 1   
    96    36    98 1   
    97    36    99 1   
    98    37    41 1   
    99    37    61 2   
   100    38    42 1   
   101    38   100 1   
   102    39    43 1   
   103    39    62 2   
   104    40    44 1   
   105    40   101 1   
   106    40   102 1   
   107    41   103 1   
   108    41   104 1   
   109    41   105 1   
   110    42   106 1   
   111    42   107 1   
   112    42   108 1   
   113    43    45 1   
   114    43    46 1   
   115    43   109 1   
   116    44    57 2   
   117    44    59 1   
   118    45    58 2   
   119    45    60 1   
   120    47   113 1   
   121    48   114 1   
   122    49   115 1   
   123    50   116 1   
   124    50   117 1   
   125    50   118 1   
   126    51   122 1   
   127    51   123 1   
   128    51   124 1   
   129    52   125 1   
   130    52   126 1   
   131    52   127 1   
   132    54   131 1   
   133    56   132 1   
   134    60   136 1   
   135   110   136 1   
   136   111   136 1   
   137   112   136 1   
   138   119   134 1   
   139   120   134 1   
   140   121   134 1   
   141   133   135 1   
   142   133   137 1   
@<TRIPOS>SUBSTRUCTURE
     1 A1L         1 TEMP              0 ****  ****    0 ROOT
