@<TRIPOS>MOLECULE
A1L
   27    27     1     0     0
SMALL
abcg2


@<TRIPOS>ATOM
      1 C10        -10.2930    18.7750   -27.6600 c          1 A1L       0.584100
      2 N12        -10.4310    19.9550   -27.0540 ns         1 A1L      -0.459900
      3 C01         -8.3830    17.6790   -31.6940 ca         1 A1L      -0.183000
      4 C02         -8.5650    16.2950   -31.7730 ca         1 A1L       0.224100
      5 C03         -8.8440    15.6150   -30.5730 ca         1 A1L      -0.294200
      6 C04         -8.9370    16.2970   -29.3580 ca         1 A1L       0.010000
      7 C05         -8.7470    17.6590   -29.2950 ca         1 A1L      -0.096300
      8 C06         -8.4750    18.3380   -30.4880 ca         1 A1L      -0.013000
      9 C08        -11.4510    21.8620   -25.8890 c          1 A1L       0.714000
     10 C09         -8.8540    18.4010   -27.9990 c3         1 A1L      -0.123100
     11 C18        -11.6760    20.4920   -26.5710 c3         1 A1L      -0.062000
     12 O13        -10.2840    22.3020   -25.8850 o          1 A1L      -0.726500
     13 O14        -12.4670    22.3880   -25.4090 o          1 A1L      -0.726500
     14 O15         -9.2870    13.6350   -29.5250 o          1 A1L      -0.423500
     15 O16         -8.9380    13.5860   -31.6240 o          1 A1L      -0.423500
     16 O17        -11.2270    18.0210   -27.9010 o          1 A1L      -0.647100
     17 H121        -9.6300    20.5510   -26.8940 hn         1 A1L       0.339500
     18 H011        -8.1660    18.2260   -32.6020 ha         1 A1L       0.134000
     19 H041        -9.1420    15.7430   -28.4530 ha         1 A1L       0.155000
     20 H061        -8.3260    19.4110   -30.4650 ha         1 A1L       0.128000
     21 H091        -8.4830    17.7780   -27.1800 hc         1 A1L       0.062700
     22 H092        -8.2200    19.2900   -28.0180 hc         1 A1L       0.062700
     23 H182       -12.3930    20.6240   -27.3870 h1         1 A1L       0.037700
     24 H181       -12.1420    19.8090   -25.8550 h1         1 A1L       0.037700
     25 H071        -8.5950    14.7750   -32.8840 ho         1 A1L       0.512000
     26 N11         -9.0370    14.1900   -30.5640 no         1 A1L       0.707200
     27 O07         -8.4560    15.7350   -32.9710 oh         1 A1L      -0.532100
@<TRIPOS>BOND
     1     1     2 1   
     2     1    10 1   
     3     1    16 2   
     4     2    11 1   
     5     2    17 1   
     6     3     4 ar  
     7     3     8 ar  
     8     3    18 1   
     9     4     5 ar  
    10     4    27 1   
    11     5     6 ar  
    12     5    26 1   
    13     6     7 ar  
    14     6    19 1   
    15     7     8 ar  
    16     7    10 1   
    17     8    20 1   
    18     9    11 1   
    19     9    12 1   
    20     9    13 1   
    21    10    21 1   
    22    10    22 1   
    23    11    23 1   
    24    11    24 1   
    25    14    26 1   
    26    15    26 1   
    27    25    27 1   
@<TRIPOS>SUBSTRUCTURE
     1 A1L         1 TEMP              0 ****  ****    0 ROOT
