@<TRIPOS>MOLECULE
A1L
   38    38     1     0     0
SMALL
abcg2


@<TRIPOS>ATOM
      1 C1         115.7770   105.4420   160.2910 c3         1 A1L      -0.076350
      2 C10        119.6740   109.9810   159.5900 c3         1 A1L      -0.017400
      3 C11        120.4050   109.2270   158.4760 c3         1 A1L      -0.076350
      4 C12        120.6480   110.8860   160.3370 c3         1 A1L      -0.076350
      5 C13        116.1800   109.8400   158.8910 c3         1 A1L       0.470600
      6 C2         115.6820   106.9610   160.4390 c3         1 A1L      -0.017400
      7 C3         114.5560   107.3440   161.4000 c3         1 A1L      -0.076350
      8 C4         117.0070   107.5520   160.8750 ca         1 A1L      -0.104800
      9 C5         117.7020   108.4780   160.0900 ca         1 A1L       0.183100
     10 C6         118.9360   109.0110   160.4910 ca         1 A1L      -0.104800
     11 C7         119.4700   108.5820   161.7020 ca         1 A1L      -0.110500
     12 C8         118.7960   107.6670   162.4980 ca         1 A1L      -0.170000
     13 C9         117.5760   107.1590   162.0850 ca         1 A1L      -0.110500
     14 O1         117.2010   108.8430   158.8750 os         1 A1L      -0.417100
     15 O2         115.4100   109.6190   157.7870 os         1 A1L      -0.559400
     16 O3         113.4750   110.1440   156.2760 o          1 A1L      -0.914500
     17 O4         113.4090   110.9250   158.7320 o          1 A1L      -0.914500
     18 O5         115.0060   112.0560   157.0750 o          1 A1L      -0.914500
     19 P1         114.1970   110.8150   157.4320 p5         1 A1L       1.269900
     20 H1         114.8300   105.0340   159.9330 hc         1 A1L       0.023117
     21 H2         116.5530   105.1610   159.5770 hc         1 A1L       0.023117
     22 H3         116.0060   104.9570   161.2420 hc         1 A1L       0.023117
     23 H4         118.9340   110.6320   159.1170 hc         1 A1L       0.110700
     24 H5         119.7230   108.6180   157.8850 hc         1 A1L       0.023117
     25 H6         120.9010   109.9260   157.8010 hc         1 A1L       0.023117
     26 H7         121.1700   108.5700   158.8950 hc         1 A1L       0.023117
     27 H8         120.1670   111.4130   161.1620 hc         1 A1L       0.023117
     28 H9         121.4980   110.3320   160.7390 hc         1 A1L       0.023117
     29 H10        121.0510   111.6360   159.6540 hc         1 A1L       0.023117
     30 H11        116.6600   110.8340   158.8790 h2         1 A1L      -0.008800
     31 H12        115.6120   109.7600   159.8330 h2         1 A1L      -0.008800
     32 H13        115.4280   107.3630   159.4580 hc         1 A1L       0.110700
     33 H14        114.4580   108.4260   161.4900 hc         1 A1L       0.023117
     34 H15        113.6020   106.9510   161.0470 hc         1 A1L       0.023117
     35 H16        114.7270   106.9400   162.4010 hc         1 A1L       0.023117
     36 H17        120.4230   108.9700   162.0400 ha         1 A1L       0.087500
     37 H18        119.2270   107.3480   163.4390 ha         1 A1L       0.080000
     38 H19        117.0600   106.4410   162.7120 ha         1 A1L       0.087500
@<TRIPOS>BOND
     1     1     6 1   
     2     1    20 1   
     3     1    21 1   
     4     1    22 1   
     5     2     3 1   
     6     2     4 1   
     7     2    10 1   
     8     2    23 1   
     9     3    24 1   
    10     3    25 1   
    11     3    26 1   
    12     4    27 1   
    13     4    28 1   
    14     4    29 1   
    15     5    14 1   
    16     5    15 1   
    17     5    30 1   
    18     5    31 1   
    19     6     7 1   
    20     6     8 1   
    21     6    32 1   
    22     7    33 1   
    23     7    34 1   
    24     7    35 1   
    25     8     9 ar  
    26     8    13 ar  
    27     9    10 ar  
    28     9    14 1   
    29    10    11 ar  
    30    11    12 ar  
    31    11    36 1   
    32    12    13 ar  
    33    12    37 1   
    34    13    38 1   
    35    15    19 1   
    36    16    19 1   
    37    17    19 1   
    38    18    19 1   
@<TRIPOS>SUBSTRUCTURE
     1 A1L         1 TEMP              0 ****  ****    0 ROOT
