@<TRIPOS>MOLECULE
A1L
  137   142     1     0     0
SMALL
No Charge or Current Charge


@<TRIPOS>ATOM
      1 C14        195.8950   158.5220   180.9560 c3         1 A1L      -0.067400
      2 C15        195.9410   157.9970   182.4150 c3         1 A1L      -0.038200
      3 C16        194.9890   158.7100   183.3620 c2         1 A1L      -0.217200
      4 C17        195.2790   159.4000   184.4840 c2         1 A1L      -0.113400
      5 C18        196.6670   159.5500   185.0990 c3         1 A1L      -0.053900
      6 C19        194.2010   160.1460   185.2640 c3         1 A1L      -0.040200
      7 C20        194.4160   161.6780   185.2930 c3         1 A1L      -0.073400
      8 C21        193.2210   162.4560   185.8940 c3         1 A1L      -0.073400
      9 C22        193.4950   163.9620   186.1610 c3         1 A1L      -0.061700
     10 C01        193.5530   166.4180   180.9040 c3         1 A1L       0.202800
     11 C02        193.2900   165.3330   179.8770 c2         1 A1L      -0.267200
     12 C03        193.5000   164.0090   180.0180 c2         1 A1L      -0.078400
     13 C04        193.1000   163.0220   178.9340 c3         1 A1L      -0.060900
     14 C05        194.0810   163.3590   181.2770 c3         1 A1L      -0.048200
     15 C07        195.0150   160.9590   180.9380 c3         1 A1L      -0.075400
     16 C08        196.2550   160.0300   180.7680 c3         1 A1L      -0.058700
     17 C09        196.9460   160.2590   179.3990 c3         1 A1L      -0.089100
     18 C23        192.2720   164.6410   186.8180 c3         1 A1L      -0.087100
     19 C24        191.1520   169.5550   185.1600 ce         1 A1L       0.427600
     20 C26        187.3610   170.7760   187.0170 cc         1 A1L       0.007200
     21 C27        189.7450   172.5710   190.3360 cf         1 A1L       0.161400
     22 C28        193.4460   171.1450   188.6310 cc         1 A1L       0.013000
     23 C30        193.9300   164.7300   184.8920 c3         1 A1L      -0.087100
     24 C31        190.6960   168.6820   183.9980 c5         1 A1L      -0.135000
     25 C33        186.1240   170.9460   187.5950 cd         1 A1L      -0.038300
     26 C34        190.2640   173.3850   191.5540 c5         1 A1L      -0.029300
     27 C35        194.6970   170.8670   187.9400 cc         1 A1L      -0.019200
     28 C37        189.1870   169.1600   183.9300 c5         1 A1L      -0.065500
     29 C38        186.2950   171.6240   188.8540 cd         1 A1L      -0.184600
     30 C39        191.7500   173.0030   191.5030 ce         1 A1L      -0.196800
     31 C40        194.3540   170.2170   186.7710 cd         1 A1L      -0.266200
     32 C41        188.9930   169.9110   185.2750 cf         1 A1L       0.174400
     33 C42        187.6510   171.8690   189.0290 cc         1 A1L       0.012200
     34 C43        191.9560   172.2240   190.2690 ce         1 A1L       0.407900
     35 C44        192.9960   170.0350   186.7580 cd         1 A1L       0.102000
     36 C45        190.8760   167.1640   184.2700 c3         1 A1L      -0.058400
     37 C46        185.2450   172.0240   189.8680 c          1 A1L       0.599700
     38 C47        192.7040   173.2920   192.4250 c2         1 A1L      -0.184200
     39 C48        195.0300   169.7160   185.5650 c          1 A1L       0.629300
     40 C49        190.5140   166.2260   183.0900 c3         1 A1L      -0.142400
     41 C50        183.7560   171.7960   189.6060 c3         1 A1L      -0.193100
     42 C52        192.4970   174.0680   193.7100 c3         1 A1L      -0.058900
     43 C53        193.8000   169.2370   184.7190 c5         1 A1L      -0.192500
     44 C56        191.3220   166.5330   181.8250 c          1 A1L       0.595100
     45 C57        193.8360   170.1020   183.4590 c          1 A1L       0.609100
     46 C58        192.5520   169.4760   185.6160 ce         1 A1L      -0.129800
     47 C59        187.7390   170.1380   185.7490 ce         1 A1L      -0.245200
     48 C60        188.4000   172.5370   190.1070 ce         1 A1L      -0.209200
     49 C61        193.1830   171.8480   189.7750 cf         1 A1L      -0.196600
     50 C62        188.9000   170.0940   182.7320 c3         1 A1L      -0.082100
     51 C64        190.0180   174.9040   191.3870 c3         1 A1L      -0.077100
     52 C65        196.0510   171.3140   188.4180 c3         1 A1L      -0.030900
     53 N10        190.2260   170.1640   185.8380 nf         1 A1L      -0.618300
     54 N11        188.2700   171.3240   187.9100 na         1 A1L      -0.169000
     55 N12        190.8140   171.9640   189.6810 nf         1 A1L      -0.614300
     56 N13        192.4520   170.5930   187.8590 na         1 A1L      -0.507000
     57 O25        190.8900   167.2070   180.9000 o          1 A1L      -0.499000
     58 O29        193.8240   169.6730   182.3150 o          1 A1L      -0.481000
     59 O32        192.6430   166.2110   181.9960 os         1 A1L      -0.440100
     60 O36        193.9950   171.4280   183.7720 os         1 A1L      -0.427100
     61 O51        185.5350   172.5450   190.9370 o          1 A1L      -0.516100
     62 O54        196.2310   169.6120   185.3570 o          1 A1L      -0.508100
     63 H1         196.5980   157.9080   180.3780 hc         1 A1L       0.037700
     64 H2         194.9050   158.3240   180.5270 hc         1 A1L       0.037700
     65 H3         195.6950   156.9280   182.4030 hc         1 A1L       0.042700
     66 H4         196.9790   158.0550   182.7560 hc         1 A1L       0.042700
     67 H5         193.9530   158.6620   183.0220 ha         1 A1L       0.163000
     68 H6         196.6350   159.3830   186.1820 hc         1 A1L       0.038700
     69 H7         197.3960   158.8390   184.7010 hc         1 A1L       0.038700
     70 H8         197.0690   160.5560   184.9290 hc         1 A1L       0.038700
     71 H9         193.2150   159.9450   184.8250 hc         1 A1L       0.041700
     72 H10        194.1530   159.7700   186.2930 hc         1 A1L       0.041700
     73 H11        195.3170   161.9070   185.8740 hc         1 A1L       0.041700
     74 H12        194.5950   162.0240   184.2670 hc         1 A1L       0.041700
     75 H13        192.3570   162.3560   185.2240 hc         1 A1L       0.035700
     76 H14        192.9380   161.9820   186.8430 hc         1 A1L       0.035700
     77 H15        194.3230   164.0260   186.8790 hc         1 A1L       0.044700
     78 H16        194.5910   166.3450   181.2560 h1         1 A1L       0.070700
     79 H17        193.4290   167.4170   180.4630 h1         1 A1L       0.070700
     80 H18        192.8510   165.7200   178.9560 ha         1 A1L       0.184000
     81 H19        192.5720   163.5170   178.1110 hc         1 A1L       0.042367
     82 H20        193.9750   162.5250   178.5010 hc         1 A1L       0.042367
     83 H21        192.4300   162.2490   179.3310 hc         1 A1L       0.042367
     84 H22        193.3050   162.7750   181.7860 hc         1 A1L       0.050700
     85 H23        194.3700   164.1310   181.9970 hc         1 A1L       0.050700
     86 H26        194.3270   160.7830   180.1040 hc         1 A1L       0.040700
     87 H27        194.4650   160.6810   181.8410 hc         1 A1L       0.040700
     88 H28        196.9860   160.2930   181.5430 hc         1 A1L       0.048700
     89 H29        197.3040   161.2900   179.2990 hc         1 A1L       0.031033
     90 H30        197.8170   159.6020   179.2890 hc         1 A1L       0.031033
     91 H31        196.2540   160.0520   178.5730 hc         1 A1L       0.031033
     92 H32        192.0050   164.1380   187.7550 hc         1 A1L       0.032033
     93 H33        192.4870   165.6920   187.0480 hc         1 A1L       0.032033
     94 H34        191.4020   164.6080   186.1500 hc         1 A1L       0.032033
     95 H35        194.0680   165.7950   185.1120 hc         1 A1L       0.032033
     96 H36        194.8820   164.3510   184.5040 hc         1 A1L       0.032033
     97 H37        193.1710   164.6340   184.1080 hc         1 A1L       0.032033
     98 H38        190.2760   166.8750   185.1430 hc         1 A1L       0.055700
     99 H39        191.9150   166.9630   184.5500 hc         1 A1L       0.055700
    100 H40        193.7320   172.9530   192.3010 ha         1 A1L       0.172000
    101 H43        189.4430   166.2950   182.8700 hc         1 A1L       0.070700
    102 H44        190.7750   165.2150   183.4220 hc         1 A1L       0.070700
    103 H45        183.1290   172.1920   190.4130 hc         1 A1L       0.064700
    104 H46        183.4800   172.2400   188.6460 hc         1 A1L       0.064700
    105 H47        183.5720   170.7270   189.4730 hc         1 A1L       0.064700
    106 H48        193.2860   173.8420   194.4370 hc         1 A1L       0.042700
    107 H49        192.5180   175.1490   193.5250 hc         1 A1L       0.042700
    108 H50        191.5370   173.8230   194.1790 hc         1 A1L       0.042700
    109 H51        193.9470   168.1960   184.4220 hc         1 A1L       0.108700
    110 H52        194.1940   173.3940   183.0870 h1         1 A1L       0.051700
    111 H53        194.9320   172.1610   182.0430 h1         1 A1L       0.051700
    112 H54        193.1610   172.3530   182.0840 h1         1 A1L       0.051700
    113 H55        186.9140   169.8080   185.1230 ha         1 A1L       0.192000
    114 H56        187.7970   173.1040   190.8070 ha         1 A1L       0.214000
    115 H57        194.0730   172.1730   190.3030 ha         1 A1L       0.191000
    116 H58        189.0730   169.5770   181.7800 hc         1 A1L       0.045367
    117 H59        187.8580   170.4380   182.7380 hc         1 A1L       0.045367
    118 H60        189.5450   170.9810   182.7550 hc         1 A1L       0.045367
    119 H61        184.3080   169.7590   187.6380 hc         1 A1L       0.055700
    120 H62        184.1550   171.3010   186.7520 hc         1 A1L       0.055700
    121 H63        184.9770   169.9330   186.0370 hc         1 A1L       0.055700
    122 H64        190.4470   175.4720   192.2200 hc         1 A1L       0.043367
    123 H65        190.4710   175.2770   190.4600 hc         1 A1L       0.043367
    124 H66        188.9470   175.1360   191.3530 hc         1 A1L       0.043367
    125 H67        196.1090   172.4080   188.4560 hc         1 A1L       0.047700
    126 H68        196.2560   170.9270   189.4230 hc         1 A1L       0.047700
    127 H69        196.8460   170.9570   187.7520 hc         1 A1L       0.047700
    128 H73        191.2470   168.9430   183.0890 hc         1 A1L       0.092700
    129 H74        189.7930   173.0540   192.4870 hc         1 A1L       0.078700
    130 H75        188.4930   168.3150   183.8490 hc         1 A1L       0.067700
    131 H41        189.2690   171.3500   187.7460 hn         1 A1L       0.394000
    132 H42        191.4560   170.6630   188.0620 hn         1 A1L       0.550000
    133 C06        195.3330   162.4730   181.0470 c3         1 A1L      -0.070400
    134 C63        184.8250   170.4650   186.9800 c3         1 A1L      -0.046800
    135 H24        196.0150   162.6130   181.8950 hc         1 A1L       0.039700
    136 C55        194.0740   172.3770   182.6930 c3         1 A1L       0.145900
    137 H25        195.8690   162.8280   180.1590 hc         1 A1L       0.039700
@<TRIPOS>BOND
     1     1     2 1   
     2     1    16 1   
     3     1    63 1   
     4     1    64 1   
     5     2     3 1   
     6     2    65 1   
     7     2    66 1   
     8     3     4 2   
     9     3    67 1   
    10     4     5 1   
    11     4     6 1   
    12     5    68 1   
    13     5    69 1   
    14     5    70 1   
    15     6     7 1   
    16     6    71 1   
    17     6    72 1   
    18     7     8 1   
    19     7    73 1   
    20     7    74 1   
    21     8     9 1   
    22     8    75 1   
    23     8    76 1   
    24     9    18 1   
    25     9    23 1   
    26     9    77 1   
    27    10    11 1   
    28    10    59 1   
    29    10    78 1   
    30    10    79 1   
    31    11    12 2   
    32    11    80 1   
    33    12    13 1   
    34    12    14 1   
    35    13    81 1   
    36    13    82 1   
    37    13    83 1   
    38    14    84 1   
    39    14    85 1   
    40    14   133 1   
    41    15    16 1   
    42    15    86 1   
    43    15    87 1   
    44    15   133 1   
    45    16    17 1   
    46    16    88 1   
    47    17    89 1   
    48    17    90 1   
    49    17    91 1   
    50    18    92 1   
    51    18    93 1   
    52    18    94 1   
    53    19    24 1   
    54    19    46 1   
    55    19    53 2   
    56    20    25 2   
    57    20    47 1   
    58    20    54 1   
    59    21    26 1   
    60    21    48 2   
    61    21    55 1   
    62    22    27 1   
    63    22    49 2   
    64    22    56 1   
    65    23    95 1   
    66    23    96 1   
    67    23    97 1   
    68    24    28 1   
    69    24    36 1   
    70    24   128 1   
    71    25    29 1   
    72    25   134 1   
    73    26    30 1   
    74    26    51 1   
    75    26   129 1   
    76    27    31 2   
    77    27    52 1   
    78    28    32 1   
    79    28    50 1   
    80    28   130 1   
    81    29    33 2   
    82    29    37 1   
    83    30    34 1   
    84    30    38 2   
    85    31    35 1   
    86    31    39 1   
    87    32    47 2   
    88    32    53 1   
    89    33    48 1   
    90    33    54 1   
    91    34    49 1   
    92    34    55 2   
    93    35    46 2   
    94    35    56 1   
    95    36    40 1   
    96    36    98 1   
    97    36    99 1   
    98    37    41 1   
    99    37    61 2   
   100    38    42 1   
   101    38   100 1   
   102    39    43 1   
   103    39    62 2   
   104    40    44 1   
   105    40   101 1   
   106    40   102 1   
   107    41   103 1   
   108    41   104 1   
   109    41   105 1   
   110    42   106 1   
   111    42   107 1   
   112    42   108 1   
   113    43    45 1   
   114    43    46 1   
   115    43   109 1   
   116    44    57 2   
   117    44    59 1   
   118    45    58 2   
   119    45    60 1   
   120    47   113 1   
   121    48   114 1   
   122    49   115 1   
   123    50   116 1   
   124    50   117 1   
   125    50   118 1   
   126    51   122 1   
   127    51   123 1   
   128    51   124 1   
   129    52   125 1   
   130    52   126 1   
   131    52   127 1   
   132    54   131 1   
   133    56   132 1   
   134    60   136 1   
   135   110   136 1   
   136   111   136 1   
   137   112   136 1   
   138   119   134 1   
   139   120   134 1   
   140   121   134 1   
   141   133   135 1   
   142   133   137 1   
@<TRIPOS>SUBSTRUCTURE
     1 A1L         1 TEMP              0 ****  ****    0 ROOT
