@<TRIPOS>MOLECULE
A1L
   56    60     1     0     0
SMALL
No Charge or Current Charge


@<TRIPOS>ATOM
      1 C10        -67.2210   -35.9480   -35.8260 cp         1 A1L      -0.090500
      2 C13        -68.5240   -33.7630   -37.1220 ca         1 A1L      -0.057000
      3 C20        -64.9980   -37.6450   -33.4760 ca         1 A1L       0.664900
      4 C22        -63.1830   -35.9320   -33.0540 c6         1 A1L       0.220300
      5 C24        -62.0700   -35.9070   -30.7660 c6         1 A1L       0.155500
      6 C26        -62.9560   -37.1040   -30.3560 c6         1 A1L      -0.102400
      7 C28        -65.3200   -39.0430   -33.4730 ca         1 A1L       0.148000
      8 C02        -69.5960   -39.7040   -38.4470 ca         1 A1L      -0.069300
      9 C03        -68.4460   -38.9480   -38.7290 ca         1 A1L      -0.115000
     10 C04        -67.5680   -38.5750   -37.6970 ca         1 A1L      -0.084000
     11 C05        -69.8590   -40.0850   -37.1190 ca         1 A1L      -0.115000
     12 C06        -68.9830   -39.7130   -36.0850 ca         1 A1L      -0.084000
     13 C07        -67.8240   -38.9570   -36.3640 cq         1 A1L      -0.027000
     14 C08        -66.8920   -38.5120   -35.2620 cq         1 A1L      -0.081000
     15 C09        -66.5250   -37.0940   -35.1400 cp         1 A1L       0.449500
     16 C11        -68.6200   -35.9620   -36.0710 ca         1 A1L      -0.106000
     17 C12        -69.2630   -34.8890   -36.7140 ca         1 A1L      -0.052000
     18 C14        -69.1850   -32.6700   -37.7770 cg         1 A1L       0.329000
     19 C16        -67.1400   -33.7200   -36.8740 ca         1 A1L       0.202000
     20 C18        -66.5000   -34.7930   -36.2330 ca         1 A1L      -0.125000
     21 C23        -61.8370   -35.9190   -32.2920 c6         1 A1L      -0.102400
     22 C27        -64.2860   -37.0920   -31.1440 c6         1 A1L       0.220300
     23 C29        -66.2990   -39.4860   -34.4260 ca         1 A1L       0.282000
     24 C31        -65.9980   -41.6770   -33.7000 ca         1 A1L       0.318900
     25 C32        -65.0470   -41.2470   -32.7520 ca         1 A1L       0.276900
     26 F17        -66.4050   -32.6470   -37.2500 f          1 A1L      -0.162000
     27 N15        -69.7350   -31.7880   -38.3100 n1         1 A1L      -0.439000
     28 N19        -65.5550   -36.7290   -34.2880 nb         1 A1L      -0.764000
     29 N21        -64.0340   -37.0730   -32.6090 nh         1 A1L      -0.758300
     30 N30        -66.6210   -40.8090   -34.5370 nb         1 A1L      -0.626000
     31 N33        -64.6970   -39.9420   -32.6330 nb         1 A1L      -0.607000
     32 H221       -62.9700   -36.0060   -34.1320 h1         1 A1L       0.051700
     33 H222       -63.7080   -34.9800   -32.8870 h1         1 A1L       0.051700
     34 H241       -62.5840   -34.9720   -30.4910 h1         1 A1L       0.057700
     35 H262       -63.1700   -37.0710   -29.2790 hc         1 A1L       0.054950
     36 H261       -62.4320   -38.0510   -30.5470 hc         1 A1L       0.054950
     37 H012       -70.2510   -41.0710   -39.9970 hc         1 A1L       0.043033
     38 H011       -71.5750   -40.2040   -39.2010 hc         1 A1L       0.043033
     39 H013       -70.5500   -39.3650   -40.3720 hc         1 A1L       0.043033
     40 H031       -68.2290   -38.6460   -39.7510 ha         1 A1L       0.112000
     41 H041       -66.6860   -37.9870   -37.9430 ha         1 A1L       0.115000
     42 H051       -70.7460   -40.6680   -36.8850 ha         1 A1L       0.112000
     43 H061       -69.2170   -40.0070   -35.0650 ha         1 A1L       0.115000
     44 H111       -69.2230   -36.8070   -35.7480 ha         1 A1L       0.134000
     45 H121       -70.3360   -34.9340   -36.8890 ha         1 A1L       0.131000
     46 H181       -65.4290   -34.7320   -36.0590 ha         1 A1L       0.148000
     47 H231       -61.2500   -36.8020   -32.5800 hc         1 A1L       0.054950
     48 H232       -61.2540   -35.0380   -32.5950 hc         1 A1L       0.054950
     49 H271       -64.8700   -36.2050   -30.8550 h1         1 A1L       0.051700
     50 H272       -64.8770   -37.9730   -30.8540 h1         1 A1L       0.051700
     51 H311       -66.2640   -42.7290   -33.7910 h4         1 A1L       0.033100
     52 H321       -64.5550   -41.9550   -32.0880 h4         1 A1L       0.033100
     53 N25        -60.7820   -35.9390   -30.0440 n8         1 A1L      -0.985200
     54 C01        -70.5450   -40.1070   -39.5650 c3         1 A1L      -0.047800
     55 H1         -60.9680   -35.9860   -29.0360 hn         1 A1L       0.392000
     56 H252       -60.3170   -36.8320   -30.2440 hn         1 A1L       0.392000
@<TRIPOS>BOND
     1     1    15 1   
     2     1    16 ar  
     3     1    20 ar  
     4     2    17 ar  
     5     2    18 1   
     6     2    19 ar  
     7     3     7 ar  
     8     3    28 ar  
     9     3    29 1   
    10     4    21 1   
    11     4    29 1   
    12     4    32 1   
    13     4    33 1   
    14     5     6 1   
    15     5    21 1   
    16     5    34 1   
    17     5    53 1   
    18     6    22 1   
    19     6    35 1   
    20     6    36 1   
    21     7    23 ar  
    22     7    31 ar  
    23     8     9 ar  
    24     8    11 ar  
    25     8    54 1   
    26     9    10 ar  
    27     9    40 1   
    28    10    13 1   
    29    10    41 1   
    30    11    12 ar  
    31    11    42 1   
    32    12    13 2   
    33    12    43 1   
    34    13    14 1   
    35    14    15 2   
    36    14    23 1   
    37    15    28 ar  
    38    16    17 ar  
    39    16    44 1   
    40    17    45 1   
    41    18    27 3   
    42    19    20 ar  
    43    19    26 1   
    44    20    46 1   
    45    21    47 1   
    46    21    48 1   
    47    22    29 1   
    48    22    49 1   
    49    22    50 1   
    50    23    30 ar  
    51    24    25 ar  
    52    24    30 ar  
    53    24    51 1   
    54    25    31 ar  
    55    25    52 1   
    56    37    54 1   
    57    38    54 1   
    58    39    54 1   
    59    53    55 1   
    60    53    56 1   
@<TRIPOS>SUBSTRUCTURE
     1 A1L         1 TEMP              0 ****  ****    0 ROOT
