@<TRIPOS>MOLECULE
A1L
   55    59     1     0     0
SMALL
abcg2


@<TRIPOS>ATOM
      1 C02        -24.4070    -6.1920   -65.9620 c6         1 A1L       0.173800
      2 C03        -23.2890    -5.3650   -66.5870 c6         1 A1L      -0.038200
      3 C04        -21.9600    -6.0060   -66.3480 cc         1 A1L       0.154800
      4 C05        -21.7800    -7.0290   -65.4760 cd         1 A1L      -0.256400
      5 C06        -22.9210    -7.5500   -64.6540 c6         1 A1L       0.227000
      6 C07        -20.4620    -7.6360   -65.3320 c          1 A1L       0.716700
      7 C10        -24.3310    -7.5080   -59.6480 ca         1 A1L      -0.106000
      8 C12        -25.0230    -8.4950   -61.7360 ca         1 A1L      -0.093500
      9 C13        -24.8620    -7.2770   -62.3890 ca         1 A1L      -0.090300
     10 C14        -24.4280    -6.1720   -61.6530 ca         1 A1L      -0.093500
     11 C18        -20.8200    -4.4000   -67.9670 c5         1 A1L       0.206800
     12 C19        -19.3240    -4.3440   -68.3440 c5         1 A1L       0.211800
     13 C21        -19.6390    -6.0720   -66.8150 cc         1 A1L       0.878100
     14 C23        -16.4920    -4.3950   -67.1760 ca         1 A1L      -0.124300
     15 C24        -15.6100    -3.8980   -68.1330 ca         1 A1L      -0.099000
     16 C26        -14.9740    -2.1030   -66.6750 ca         1 A1L      -0.097000
     17 C28        -16.6230    -3.7340   -65.9420 ca         1 A1L      -0.048300
     18 C29        -17.5720    -4.2130   -64.8770 c3         1 A1L      -0.055800
     19 N16        -19.4020    -7.0890   -66.0280 nd         1 A1L      -0.756100
     20 C09        -24.1630    -6.2850   -60.2940 ca         1 A1L      -0.113000
     21 C11        -24.7620    -8.6130   -60.3720 ca         1 A1L      -0.113000
     22 C25        -14.8490    -2.7590   -67.8930 ca         1 A1L      -0.119000
     23 C27        -15.8540    -2.5920   -65.7160 ca         1 A1L      -0.118000
     24 N01        -24.0310    -6.6050   -64.6150 n3         1 A1L      -0.728600
     25 N17        -20.8750    -5.5340   -67.0370 na         1 A1L      -0.649400
     26 N20        -18.7200    -5.3920   -67.5250 nh         1 A1L      -0.772600
     27 O08        -20.2820    -8.6250   -64.5990 o          1 A1L      -0.574100
     28 H1         -25.3160    -5.5930   -65.9050 h1         1 A1L       0.037200
     29 H2         -23.2800    -4.3560   -66.1640 hc         1 A1L       0.058700
     30 H3         -23.2530    -8.5300   -65.0460 h1         1 A1L       0.061200
     31 H5         -25.3510    -9.3610   -62.2990 ha         1 A1L       0.114500
     32 H6         -24.2910    -5.2220   -62.1560 ha         1 A1L       0.114500
     33 H9         -21.1540    -3.4900   -67.4700 h1         1 A1L       0.063700
     34 H10        -19.1630    -4.5500   -69.4040 h1         1 A1L       0.063200
     35 H13        -15.5240    -4.4130   -69.0830 ha         1 A1L       0.110000
     36 H14        -14.3890    -1.2140   -66.4700 ha         1 A1L       0.114000
     37 H15        -17.5410    -5.2960   -64.7580 hc         1 A1L       0.051033
     38 H16        -17.3330    -3.7530   -63.9190 hc         1 A1L       0.051033
     39 H17        -18.6050    -3.9500   -65.1230 hc         1 A1L       0.051033
     40 H18        -23.8280    -5.4180   -59.7370 ha         1 A1L       0.111500
     41 H19        -24.8900    -9.5690   -59.8800 ha         1 A1L       0.111500
     42 H20        -14.1680    -2.3910   -68.6500 ha         1 A1L       0.115000
     43 H21        -15.9460    -2.0810   -64.7640 ha         1 A1L       0.114000
     44 H22        -24.6250    -7.0640   -66.6020 h1         1 A1L       0.037200
     45 H23        -23.4590    -5.2550   -67.6610 hc         1 A1L       0.058700
     46 H24        -22.5710    -7.7340   -63.6370 h1         1 A1L       0.061200
     47 H25        -21.4550    -4.5840   -68.8310 h1         1 A1L       0.063700
     48 H26        -18.8840    -3.3750   -68.1100 h1         1 A1L       0.063200
     49 C15        -25.1640    -7.1370   -63.8620 c3         1 A1L       0.219100
     50 C22        -17.2920    -5.6380   -67.4990 c3         1 A1L       0.297100
     51 H4         -24.1240    -7.5960   -58.5880 ha         1 A1L       0.111000
     52 H7         -25.9960    -6.4410   -63.9950 h1         1 A1L       0.037200
     53 H8         -25.4900    -8.1110   -64.2600 h1         1 A1L       0.037200
     54 H11        -17.1230    -6.4200   -66.7580 h1         1 A1L       0.074700
     55 H12        -16.9720    -6.0250   -68.4700 h1         1 A1L       0.074700
@<TRIPOS>BOND
     1     1     2 1   
     2     1    24 1   
     3     1    28 1   
     4     1    44 1   
     5     2     3 1   
     6     2    29 1   
     7     2    45 1   
     8     3     4 2   
     9     3    25 1   
    10     4     5 1   
    11     4     6 1   
    12     5    24 1   
    13     5    30 1   
    14     5    46 1   
    15     6    19 1   
    16     6    27 2   
    17     7    20 ar  
    18     7    21 ar  
    19     7    51 1   
    20     8     9 ar  
    21     8    21 ar  
    22     8    31 1   
    23     9    10 ar  
    24     9    49 1   
    25    10    20 ar  
    26    10    32 1   
    27    11    12 1   
    28    11    25 1   
    29    11    33 1   
    30    11    47 1   
    31    12    26 1   
    32    12    34 1   
    33    12    48 1   
    34    13    19 2   
    35    13    25 1   
    36    13    26 1   
    37    14    15 ar  
    38    14    17 ar  
    39    14    50 1   
    40    15    22 ar  
    41    15    35 1   
    42    16    22 ar  
    43    16    23 ar  
    44    16    36 1   
    45    17    18 1   
    46    17    23 ar  
    47    18    37 1   
    48    18    38 1   
    49    18    39 1   
    50    20    40 1   
    51    21    41 1   
    52    22    42 1   
    53    23    43 1   
    54    24    49 1   
    55    26    50 1   
    56    49    52 1   
    57    49    53 1   
    58    50    54 1   
    59    50    55 1   
@<TRIPOS>SUBSTRUCTURE
     1 A1L         1 TEMP              0 ****  ****    0 ROOT
