@<TRIPOS>MOLECULE
A1N
   53    57     1     0     0
SMALL
abcg2


@<TRIPOS>ATOM
      1 C1           5.0480    -1.6680     1.3610 c3         1 A1N      -0.117100
      2 N1           3.8600     0.2320    -0.8220 nh         1 A1N      -0.783300
      3 O1           6.4790    -0.1510     0.0380 os         1 A1N      -0.458000
      4 C2           5.6010    -1.2630    -0.0010 c6         1 A1N       0.157300
      5 N2          -0.0960     0.9860    -0.0640 nb         1 A1N      -0.225000
      6 O2          -5.3330     0.6640     0.2690 os         1 A1N      -0.323100
      7 C3           4.4910    -1.0530    -1.0300 c6         1 A1N       0.192800
      8 N3           2.1350     1.6960    -0.4230 nb         1 A1N      -0.274000
      9 C4           4.8150     1.3150    -0.9420 c6         1 A1N       0.192800
     10 N4          -0.4330    -2.5900    -0.0700 nc         1 A1N      -0.509100
     11 C5           5.9140     1.1500     0.1000 c6         1 A1N       0.157300
     12 N5          -1.5670    -3.2550     0.0440 na         1 A1N      -0.043400
     13 C6           5.4540     1.5540     1.4950 c3         1 A1N      -0.117100
     14 C7           2.5520     0.4280    -0.5600 ca         1 A1N       0.400900
     15 C8           1.6240    -0.6250    -0.4360 ca         1 A1N      -0.269000
     16 C9           0.3080    -0.2880    -0.1910 ca         1 A1N       0.155700
     17 C10          0.8540     1.8940    -0.1870 ca         1 A1N       0.163900
     18 C11         -0.7310    -1.3050    -0.0640 cd         1 A1N       0.264900
     19 C12         -2.6440    -2.4330     0.1260 ca         1 A1N      -0.087200
     20 C13         -4.0130    -2.6970     0.2420 ca         1 A1N      -0.102000
     21 C14         -4.8540    -1.6150     0.2830 ca         1 A1N      -0.096000
     22 C15         -4.3670    -0.2860     0.2160 ca         1 A1N       0.106100
     23 C16         -4.9730     2.0170     0.1660 cx         1 A1N       0.117000
     24 C17         -4.6690     2.4720    -1.2370 c3         1 A1N      -0.082100
     25 C18         -5.7360     2.9130     1.0800 cx         1 A1N      -0.131900
     26 C19         -4.2810     2.6310     1.3420 cx         1 A1N      -0.131900
     27 C20         -3.0170    -0.0280     0.1100 ca         1 A1N      -0.112000
     28 C21         -2.1420    -1.1260     0.0620 ca         1 A1N      -0.151900
     29 H1           4.2290    -1.0340     1.7000 hc         1 A1N       0.044533
     30 H2           4.6660    -2.6880     1.3030 hc         1 A1N       0.044533
     31 H3           5.8300    -1.6460     2.1210 hc         1 A1N       0.044533
     32 H4           6.2220    -2.0870    -0.3620 h1         1 A1N       0.071200
     33 H5           3.7780    -1.8710    -0.9670 h1         1 A1N       0.066200
     34 H6           4.9130    -1.0720    -2.0400 h1         1 A1N       0.066200
     35 H7           5.2490     1.2860    -1.9480 h1         1 A1N       0.066200
     36 H8           4.3150     2.2720    -0.8210 h1         1 A1N       0.066200
     37 H10          6.7330     1.8170    -0.1840 h1         1 A1N       0.071200
     38 H11          6.2310     1.3520     2.2340 hc         1 A1N       0.044533
     39 H12          5.2520     2.6260     1.5120 hc         1 A1N       0.044533
     40 H13          4.5450     1.0440     1.8100 hc         1 A1N       0.044533
     41 H14          1.9010    -1.6630    -0.5370 ha         1 A1N       0.144000
     42 H15          0.5450     2.9290    -0.0830 h5         1 A1N       0.041100
     43 H16         -4.3970    -3.7070     0.2950 ha         1 A1N       0.121000
     44 H17         -5.9230    -1.7680     0.3700 ha         1 A1N       0.127000
     45 H18         -3.8280     1.9310    -1.6720 hc         1 A1N       0.048367
     46 H19         -5.5340     2.3300    -1.8870 hc         1 A1N       0.048367
     47 H20         -4.4150     3.5310    -1.2450 hc         1 A1N       0.048367
     48 H21         -6.0200     3.8890     0.7090 hc         1 A1N       0.081450
     49 H22         -6.4600     2.4590     1.7460 hc         1 A1N       0.081450
     50 H23         -4.0420     1.9920     2.1830 hc         1 A1N       0.081450
     51 H24         -3.5540     3.4120     1.1570 hc         1 A1N       0.081450
     52 H25         -2.6180     0.9740     0.0690 ha         1 A1N       0.153000
     53 H9          -1.5550    -4.2620     0.0630 hn         1 A1N       0.377000
@<TRIPOS>BOND
     1     1     4 1   
     2     1    29 1   
     3     1    30 1   
     4     1    31 1   
     5     2     7 1   
     6     2     9 1   
     7     2    14 1   
     8     3     4 1   
     9     3    11 1   
    10     4     7 1   
    11     4    32 1   
    12     5    16 ar  
    13     5    17 ar  
    14     6    22 1   
    15     6    23 1   
    16     7    33 1   
    17     7    34 1   
    18     8    14 ar  
    19     8    17 ar  
    20     9    11 1   
    21     9    35 1   
    22     9    36 1   
    23    10    12 1   
    24    10    18 2   
    25    11    13 1   
    26    11    37 1   
    27    12    19 1   
    28    12    53 1   
    29    13    38 1   
    30    13    39 1   
    31    13    40 1   
    32    14    15 ar  
    33    15    16 ar  
    34    15    41 1   
    35    16    18 1   
    36    17    42 1   
    37    18    28 1   
    38    19    20 ar  
    39    19    28 ar  
    40    20    21 ar  
    41    20    43 1   
    42    21    22 ar  
    43    21    44 1   
    44    22    27 ar  
    45    23    24 1   
    46    23    25 1   
    47    23    26 1   
    48    24    45 1   
    49    24    46 1   
    50    24    47 1   
    51    25    26 1   
    52    25    48 1   
    53    25    49 1   
    54    26    50 1   
    55    26    51 1   
    56    27    28 ar  
    57    27    52 1   
@<TRIPOS>SUBSTRUCTURE
     1 A1N         1 TEMP              0 ****  ****    0 ROOT
