@<TRIPOS>MOLECULE
A1N
   53    57     1     0     0
SMALL
No Charge or Current Charge


@<TRIPOS>ATOM
      1 C1           5.7410    -2.1830     0.2310 c3         1 A1N      -0.117100
      2 N1           3.9340     0.5270    -0.1100 nh         1 A1N      -0.783300
      3 O1           6.7740    -0.0110    -0.4130 os         1 A1N      -0.458000
      4 C2           5.8180    -1.0360    -0.8160 c6         1 A1N       0.157300
      5 N2          -0.1310     1.3080     0.3890 nb         1 A1N      -0.225000
      6 O2          -5.3130     1.0830     0.9800 os         1 A1N      -0.323100
      7 C3           4.4300    -0.4130    -1.1710 c6         1 A1N       0.192800
      8 N3           2.1550     2.0410     0.2330 nb         1 A1N      -0.274000
      9 C4           4.9550     1.5620     0.2730 c6         1 A1N       0.192800
     10 N4          -0.4880    -2.3440     0.0360 nc         1 A1N      -0.509100
     11 C5           6.3470     0.9350     0.6120 c6         1 A1N       0.157300
     12 N5          -1.7180    -3.0190     0.0910 na         1 A1N      -0.043400
     13 C6           6.4220     0.3020     2.0300 c3         1 A1N      -0.117100
     14 C7           2.5510     0.7660     0.0510 ca         1 A1N       0.400900
     15 C8           1.6190    -0.2830     0.0440 ca         1 A1N      -0.269000
     16 C9           0.2510     0.0230     0.2180 ca         1 A1N       0.155700
     17 C10          0.8350     2.2470     0.3900 ca         1 A1N       0.163900
     18 C11         -0.7900    -1.0440     0.2190 cd         1 A1N       0.264900
     19 C12         -2.7480    -2.1250     0.3060 ca         1 A1N      -0.087200
     20 C13         -4.1200    -2.3790     0.4380 ca         1 A1N      -0.102000
     21 C14         -4.9730    -1.2780     0.6640 ca         1 A1N      -0.096000
     22 C15         -4.4460     0.0330     0.7450 ca         1 A1N       0.106100
     23 C16         -5.4190     1.9330    -0.1570 cx         1 A1N       0.117000
     24 C17         -5.9430     1.1790    -1.3820 c3         1 A1N      -0.082100
     25 C18         -5.9300     3.3260     0.1240 cx         1 A1N      -0.131900
     26 C19         -4.4880     3.1180    -0.2720 cx         1 A1N      -0.131900
     27 C20         -3.0530     0.2490     0.6270 ca         1 A1N      -0.112000
     28 C21         -2.2290    -0.8700     0.3960 ca         1 A1N      -0.151900
     29 H1           5.0260    -1.9700     1.0320 hc         1 A1N       0.044533
     30 H2           5.4000    -3.1090    -0.2480 hc         1 A1N       0.044533
     31 H3           6.7220    -2.3900     0.6760 hc         1 A1N       0.044533
     32 H4           6.2150    -1.4930    -1.7330 h1         1 A1N       0.071200
     33 H5           3.7200    -1.2310    -1.3520 h1         1 A1N       0.066200
     34 H6           4.5280     0.1310    -2.1220 h1         1 A1N       0.066200
     35 H7           5.0850     2.2790    -0.5510 h1         1 A1N       0.066200
     36 H8           4.6200     2.1380     1.1490 h1         1 A1N       0.066200
     37 H10          7.0830     1.7530     0.6100 h1         1 A1N       0.071200
     38 H11          7.2780    -0.3760     2.1250 hc         1 A1N       0.044533
     39 H12          6.5430     1.0860     2.7870 hc         1 A1N       0.044533
     40 H13          5.5090    -0.2410     2.2920 hc         1 A1N       0.044533
     41 H14          1.9460    -1.3100    -0.0730 ha         1 A1N       0.144000
     42 H15          0.5140     3.2770     0.5330 h5         1 A1N       0.041100
     43 H16         -4.5170    -3.3900     0.3710 ha         1 A1N       0.121000
     44 H17         -6.0430    -1.4360     0.7740 ha         1 A1N       0.127000
     45 H18         -5.1620     0.5510    -1.8280 hc         1 A1N       0.048367
     46 H19         -6.7920     0.5370    -1.1180 hc         1 A1N       0.048367
     47 H20         -6.2830     1.8730    -2.1590 hc         1 A1N       0.048367
     48 H21         -6.5930     3.7860    -0.6040 hc         1 A1N       0.081450
     49 H22         -6.1390     3.5880     1.1580 hc         1 A1N       0.081450
     50 H23         -3.7380     3.2710     0.5000 hc         1 A1N       0.081450
     51 H24         -4.1840     3.4270    -1.2690 hc         1 A1N       0.081450
     52 H25         -2.6460     1.2480     0.7230 ha         1 A1N       0.153000
     53 H9          -1.7940    -4.0300    -0.0170 hn         1 A1N       0.377000
@<TRIPOS>BOND
     1     1     4 1   
     2     1    29 1   
     3     1    30 1   
     4     1    31 1   
     5     2     7 1   
     6     2     9 1   
     7     2    14 1   
     8     3     4 1   
     9     3    11 1   
    10     4     7 1   
    11     4    32 1   
    12     5    16 ar  
    13     5    17 ar  
    14     6    22 1   
    15     6    23 1   
    16     7    33 1   
    17     7    34 1   
    18     8    14 ar  
    19     8    17 ar  
    20     9    11 1   
    21     9    35 1   
    22     9    36 1   
    23    10    12 1   
    24    10    18 2   
    25    11    13 1   
    26    11    37 1   
    27    12    19 1   
    28    12    53 1   
    29    13    38 1   
    30    13    39 1   
    31    13    40 1   
    32    14    15 ar  
    33    15    16 ar  
    34    15    41 1   
    35    16    18 1   
    36    17    42 1   
    37    18    28 1   
    38    19    20 ar  
    39    19    28 ar  
    40    20    21 ar  
    41    20    43 1   
    42    21    22 ar  
    43    21    44 1   
    44    22    27 ar  
    45    23    24 1   
    46    23    25 1   
    47    23    26 1   
    48    24    45 1   
    49    24    46 1   
    50    24    47 1   
    51    25    26 1   
    52    25    48 1   
    53    25    49 1   
    54    26    50 1   
    55    26    51 1   
    56    27    28 ar  
    57    27    52 1   
@<TRIPOS>SUBSTRUCTURE
     1 A1N         1 TEMP              0 ****  ****    0 ROOT
