@<TRIPOS>MOLECULE
A1O
   50    52     1     0     0
SMALL
No Charge or Current Charge


@<TRIPOS>ATOM
      1 C1          -3.1160     0.3330     0.2190 ca         1 A1O      -0.006000
      2 C2          -2.8520     1.5910    -0.3700 ca         1 A1O      -0.112300
      3 C3          -2.0410    -0.3580     0.8210 ca         1 A1O      -0.142000
      4 C4          -0.7740     0.2400     0.9400 ca         1 A1O      -0.054000
      5 C5          -0.5350     1.5250     0.4160 ca         1 A1O       0.207000
      6 C6          -4.5550    -2.8160     0.3180 c3         1 A1O      -0.099400
      7 C7          -1.5830     2.1890    -0.2410 ca         1 A1O      -0.109000
      8 C9          -3.9540     2.3220    -1.1320 c6         1 A1O      -0.026100
      9 C10          6.1020    -0.5120    -1.3280 ca         1 A1O      -0.110500
     10 C11          6.2720    -1.7120    -0.6130 ca         1 A1O      -0.061300
     11 C12         -4.8420     1.3150    -1.8830 c6         1 A1O      -0.160400
     12 C13         -5.3220     0.1910    -0.9630 c          1 A1O       0.567000
     13 C14         -4.9570    -3.9440     1.2870 c3         1 A1O      -0.088100
     14 C15          2.4280     0.3220    -0.6030 c3         1 A1O      -0.271100
     15 C16          3.7750    -0.3900    -0.6050 ca         1 A1O      -0.089300
     16 C17          3.9450    -1.5890     0.1110 ca         1 A1O      -0.082000
     17 C18          4.8590     0.1450    -1.3260 ca         1 A1O      -0.082000
     18 C19          5.1880    -2.2460     0.1080 ca         1 A1O      -0.110500
     19 N1           0.7040     2.1680     0.5060 nu         1 A1O      -0.871100
     20 N2          -4.3910    -0.3150    -0.0210 n          1 A1O      -0.221400
     21 O1           2.2070     0.8460     2.0190 o          1 A1O      -0.519000
     22 O2          -6.4700    -0.2280    -1.0520 o          1 A1O      -0.534000
     23 O3           3.1360     2.6530     0.4900 o          1 A1O      -0.519000
     24 S1           2.2270     1.5280     0.7230 s6         1 A1O       1.167100
     25 H1          -2.1700    -1.3600     1.2170 ha         1 A1O       0.131000
     26 H2           0.0140    -0.3110     1.4430 ha         1 A1O       0.148000
     27 H3          -5.1040    -2.9400    -0.6230 hc         1 A1O       0.050700
     28 H4          -3.4900    -2.9140     0.0760 hc         1 A1O       0.050700
     29 H5          -1.4070     3.1720    -0.6700 ha         1 A1O       0.113000
     30 H6          -5.9100    -1.3060     1.0870 h1         1 A1O       0.061700
     31 H7          -4.3330    -1.2950     1.8530 h1         1 A1O       0.061700
     32 H8          -4.5630     2.9030    -0.4260 hc         1 A1O       0.060700
     33 H9          -3.5250     3.0410    -1.8440 hc         1 A1O       0.060700
     34 H10          6.9320    -0.0870    -1.8870 ha         1 A1O       0.115000
     35 H11         -5.6870     1.7810    -2.4060 hc         1 A1O       0.078200
     36 H12         -4.1910     0.8370    -2.6270 hc         1 A1O       0.078200
     37 H13         -4.7470    -4.9240     0.8420 hc         1 A1O       0.035700
     38 H14         -4.3970    -3.8660     2.2270 hc         1 A1O       0.035700
     39 H15         -6.0280    -3.8940     1.5170 hc         1 A1O       0.035700
     40 H16          2.2800     0.8730    -1.5370 h1         1 A1O       0.094700
     41 H17          1.6130    -0.4000    -0.4870 h1         1 A1O       0.094700
     42 H18          3.1150    -2.0120     0.6730 ha         1 A1O       0.119000
     43 H19          4.7410     1.0720    -1.8830 ha         1 A1O       0.119000
     44 H20          5.3070    -3.1710     0.6680 ha         1 A1O       0.115000
     45 H21          0.8320     3.0380     0.0060 hn         1 A1O       0.488000
     46 H22          8.2460    -2.0650     0.2120 hc         1 A1O       0.044367
     47 H23          7.4990    -3.5050    -0.5000 hc         1 A1O       0.044367
     48 H24          8.1630    -2.2460    -1.5480 hc         1 A1O       0.044367
     49 C8          -4.8360    -1.4060     0.8840 c3         1 A1O       0.094000
     50 C20          7.6180    -2.4210    -0.6130 c3         1 A1O      -0.049800
@<TRIPOS>BOND
     1     1     2 ar  
     2     1     3 ar  
     3     1    20 1   
     4     2     7 ar  
     5     2     8 1   
     6     3     4 ar  
     7     3    25 1   
     8     4     5 ar  
     9     4    26 1   
    10     5     7 ar  
    11     5    19 1   
    12     6    13 1   
    13     6    27 1   
    14     6    28 1   
    15     6    49 1   
    16     7    29 1   
    17     8    11 1   
    18     8    32 1   
    19     8    33 1   
    20     9    10 ar  
    21     9    17 ar  
    22     9    34 1   
    23    10    18 ar  
    24    10    50 1   
    25    11    12 1   
    26    11    35 1   
    27    11    36 1   
    28    12    20 1   
    29    12    22 2   
    30    13    37 1   
    31    13    38 1   
    32    13    39 1   
    33    14    15 1   
    34    14    24 1   
    35    14    40 1   
    36    14    41 1   
    37    15    16 ar  
    38    15    17 ar  
    39    16    18 ar  
    40    16    42 1   
    41    17    43 1   
    42    18    44 1   
    43    19    24 1   
    44    19    45 1   
    45    20    49 1   
    46    21    24 2   
    47    23    24 2   
    48    30    49 1   
    49    31    49 1   
    50    46    50 1   
    51    47    50 1   
    52    48    50 1   
@<TRIPOS>SUBSTRUCTURE
     1 A1O         1 TEMP              0 ****  ****    0 ROOT
