@<TRIPOS>MOLECULE
A1O
   50    52     1     0     0
SMALL
bcc


@<TRIPOS>ATOM
      1 C1          -2.9510     0.1630     0.2290 ca         1 A1O       0.086600
      2 C2          -2.4030     1.1880    -0.5520 ca         1 A1O      -0.112300
      3 C3          -2.2770    -0.2440     1.3780 ca         1 A1O      -0.160000
      4 C4          -1.0870     0.3580     1.7550 ca         1 A1O      -0.072000
      5 C5          -0.5320     1.3570     0.9690 ca         1 A1O       0.068600
      6 C6          -4.6550    -2.6710     0.8010 c3         1 A1O      -0.099400
      7 C7          -1.1960     1.7560    -0.1860 ca         1 A1O      -0.127000
      8 C9          -3.1550     1.6210    -1.7700 c6         1 A1O      -0.026100
      9 C10          5.9680    -0.0570    -1.1410 ca         1 A1O      -0.128500
     10 C11          5.9590    -1.4490    -1.0870 ca         1 A1O      -0.061300
     11 C12         -3.7870     0.4020    -2.4160 c6         1 A1O      -0.160400
     12 C13         -4.6400    -0.3590    -1.4350 c          1 A1O       0.709500
     13 C14         -5.4420    -3.4090     1.8740 c3         1 A1O      -0.088100
     14 C15          2.3350     0.8150    -0.5450 c3         1 A1O      -0.160300
     15 C16          3.5900     0.0280    -0.7470 ca         1 A1O      -0.089300
     16 C17          3.5720    -1.3630    -0.6920 ca         1 A1O      -0.100000
     17 C18          4.8020     0.6730    -0.9670 ca         1 A1O      -0.100000
     18 C19          4.7400    -2.0880    -0.8640 ca         1 A1O      -0.128500
     19 N1           0.6810     1.9840     1.3520 nu         1 A1O      -0.677500
     20 N2          -4.1820    -0.4070    -0.1450 n          1 A1O      -0.381000
     21 O1           1.9690    -0.1060     1.9030 o          1 A1O      -0.589800
     22 O2          -5.6740    -0.9120    -1.7630 o          1 A1O      -0.609500
     23 O3           3.1510     2.0930     1.6320 o          1 A1O      -0.589800
     24 S1           2.1190     1.1610     1.2100 s6         1 A1O       1.197900
     25 H1          -2.6670    -1.0320     2.0050 ha         1 A1O       0.149000
     26 H2          -0.6000     0.0450     2.6670 ha         1 A1O       0.166000
     27 H3          -4.9020    -3.0720    -0.1830 hc         1 A1O       0.050700
     28 H4          -3.5850    -2.8430     0.9460 hc         1 A1O       0.050700
     29 H5          -0.7720     2.5350    -0.8100 ha         1 A1O       0.131000
     30 H6          -6.0110    -1.0080     0.6270 h1         1 A1O       0.061700
     31 H7          -4.7620    -0.7620     1.8160 h1         1 A1O       0.061700
     32 H8          -3.9340     2.3380    -1.4920 hc         1 A1O       0.060700
     33 H9          -2.4960     2.1320    -2.4720 hc         1 A1O       0.060700
     34 H10          6.8990     0.4650    -1.3250 ha         1 A1O       0.133000
     35 H11         -4.4070     0.6720    -3.2690 hc         1 A1O       0.078200
     36 H12         -3.0070    -0.2740    -2.7840 hc         1 A1O       0.078200
     37 H13         -5.2510    -4.4810     1.8340 hc         1 A1O       0.035700
     38 H14         -5.1720    -3.0630     2.8730 hc         1 A1O       0.035700
     39 H15         -6.5160    -3.2610     1.7520 hc         1 A1O       0.035700
     40 H16          2.3620     1.7790    -1.0540 h1         1 A1O       0.094700
     41 H17          1.4470     0.2710    -0.8730 h1         1 A1O       0.094700
     42 H18          2.6380    -1.8850    -0.5240 ha         1 A1O       0.137000
     43 H19          4.8360     1.7550    -1.0180 ha         1 A1O       0.137000
     44 H20          4.7020    -3.1710    -0.8270 ha         1 A1O       0.133000
     45 H21          0.7740     2.9490     1.0520 hn         1 A1O       0.432800
     46 H22          7.6500    -2.4890    -0.2720 hc         1 A1O       0.044367
     47 H23          7.0440    -3.1800    -1.7680 hc         1 A1O       0.044367
     48 H24          7.9790    -1.6840    -1.7990 hc         1 A1O       0.044367
     49 C8          -4.9540    -1.1770     0.8250 c3         1 A1O       0.094000
     50 C20          7.2230    -2.2400    -1.2460 c3         1 A1O      -0.049800
@<TRIPOS>BOND
     1     1     2 ar  
     2     1     3 ar  
     3     1    20 1   
     4     2     7 ar  
     5     2     8 1   
     6     3     4 ar  
     7     3    25 1   
     8     4     5 ar  
     9     4    26 1   
    10     5     7 ar  
    11     5    19 1   
    12     6    13 1   
    13     6    27 1   
    14     6    28 1   
    15     6    49 1   
    16     7    29 1   
    17     8    11 1   
    18     8    32 1   
    19     8    33 1   
    20     9    10 ar  
    21     9    17 ar  
    22     9    34 1   
    23    10    18 ar  
    24    10    50 1   
    25    11    12 1   
    26    11    35 1   
    27    11    36 1   
    28    12    20 1   
    29    12    22 2   
    30    13    37 1   
    31    13    38 1   
    32    13    39 1   
    33    14    15 1   
    34    14    24 1   
    35    14    40 1   
    36    14    41 1   
    37    15    16 ar  
    38    15    17 ar  
    39    16    18 ar  
    40    16    42 1   
    41    17    43 1   
    42    18    44 1   
    43    19    24 1   
    44    19    45 1   
    45    20    49 1   
    46    21    24 2   
    47    23    24 2   
    48    30    49 1   
    49    31    49 1   
    50    46    50 1   
    51    47    50 1   
    52    48    50 1   
@<TRIPOS>SUBSTRUCTURE
     1 A1O         1 TEMP              0 ****  ****    0 ROOT
