@<TRIPOS>MOLECULE
A1Q
   31    31     1     0     0
SMALL
No Charge or Current Charge


@<TRIPOS>ATOM
      1 C1           6.0610    30.4810    15.3920 c6         1 A1Q       0.345300
      2 O7           9.9700    26.5390    14.1340 oh         1 A1Q      -0.656000
      3 O1           6.7680    31.5650    14.7580 os         1 A1Q      -0.484000
      4 C2           5.7140    30.8230    16.8860 c6         1 A1Q       0.125300
      5 O2           4.8700    29.8210    17.5130 oh         1 A1Q      -0.688000
      6 C3           7.0390    30.9470    17.6950 c6         1 A1Q       0.144300
      7 O3           6.7420    31.1810    19.0840 oh         1 A1Q      -0.652000
      8 C4           7.9070    29.6590    17.5390 c6         1 A1Q       0.147300
      9 O4           9.1500    29.8280    18.2540 oh         1 A1Q      -0.728000
     10 C5           8.1400    29.3580    16.0250 c6         1 A1Q       0.141300
     11 O5           6.8660    29.2820    15.3220 os         1 A1Q      -0.453000
     12 C6           8.9210    28.0180    15.7850 c3         1 A1Q       0.187300
     13 O6           8.1860    26.8460    16.1990 oh         1 A1Q      -0.700000
     14 C7           9.3300    27.8190    14.3000 c3         1 A1Q       0.164600
     15 C8           6.9770    31.4470    13.3400 c3         1 A1Q       0.152900
     16 HO7         10.2760    26.4890    13.2000 ho         1 A1Q       0.441000
     17 H71         10.0110    28.6290    14.0060 h1         1 A1Q       0.029700
     18 H72          8.4390    27.8850    13.6600 h1         1 A1Q       0.029700
     19 H6           9.8550    28.0840    16.3600 h1         1 A1Q       0.062700
     20 HO6          8.5820    26.1220    15.6570 ho         1 A1Q       0.506000
     21 H5           8.7370    30.1740    15.5910 h1         1 A1Q       0.054700
     22 H4           7.3450    28.8140    17.9650 h1         1 A1Q       0.075700
     23 H1           5.1190    30.3100    14.8490 h2         1 A1Q       0.066700
     24 H3           7.6090    31.7970    17.2900 h1         1 A1Q       0.057700
     25 HO3          5.8930    30.7020    19.2330 ho         1 A1Q       0.448000
     26 H2           5.2050    31.7980    16.9000 h1         1 A1Q       0.046700
     27 HO2          4.0460    29.7470    16.9750 ho         1 A1Q       0.503000
     28 H81C         7.4990    32.3330    12.9570 h1         1 A1Q       0.034700
     29 H82C         7.5870    30.5650    13.1040 h1         1 A1Q       0.034700
     30 H83C         6.0200    31.3590    12.8100 h1         1 A1Q       0.034700
     31 HO4          8.9040    30.3050    19.0830 ho         1 A1Q       0.524000
@<TRIPOS>BOND
     1     1     3 1   
     2     1     4 1   
     3     1    11 1   
     4     1    23 1   
     5     2    14 1   
     6     2    16 1   
     7     3    15 1   
     8     4     5 1   
     9     4     6 1   
    10     4    26 1   
    11     5    27 1   
    12     6     7 1   
    13     6     8 1   
    14     6    24 1   
    15     7    25 1   
    16     8     9 1   
    17     8    10 1   
    18     8    22 1   
    19     9    31 1   
    20    10    11 1   
    21    10    12 1   
    22    10    21 1   
    23    12    13 1   
    24    12    14 1   
    25    12    19 1   
    26    13    20 1   
    27    14    17 1   
    28    14    18 1   
    29    15    28 1   
    30    15    29 1   
    31    15    30 1   
@<TRIPOS>SUBSTRUCTURE
     1 A1Q         1 TEMP              0 ****  ****    0 ROOT
