@<TRIPOS>MOLECULE
A1Q
   31    31     1     0     0
SMALL
bcc


@<TRIPOS>ATOM
      1 C1           6.1040    30.3780    15.3760 c6         1 A1Q       0.298900
      2 O7          10.1390    26.9350    13.9280 oh         1 A1Q      -0.593800
      3 O1           6.6990    31.5260    14.8650 os         1 A1Q      -0.437600
      4 C2           5.7390    30.6550    16.8390 c6         1 A1Q       0.102100
      5 O2           4.9370    29.6190    17.3470 oh         1 A1Q      -0.565800
      6 C3           7.0170    30.7350    17.6730 c6         1 A1Q       0.121100
      7 O3           6.7600    30.8630    19.0510 oh         1 A1Q      -0.589800
      8 C4           7.8600    29.4810    17.4720 c6         1 A1Q       0.124100
      9 O4           9.1030    29.5850    18.1230 oh         1 A1Q      -0.605800
     10 C5           8.1370    29.3030    15.9790 c6         1 A1Q       0.118100
     11 O5           6.9150    29.2450    15.2630 os         1 A1Q      -0.406600
     12 C6           8.9380    28.0440    15.6530 c3         1 A1Q       0.164100
     13 O6           8.3160    26.8670    16.1180 oh         1 A1Q      -0.577800
     14 C7           9.1520    27.9160    14.1550 c3         1 A1Q       0.141400
     15 C8           6.9480    31.4920    13.4760 c3         1 A1Q       0.129700
     16 HO7         10.2450    26.8330    12.9790 ho         1 A1Q       0.402000
     17 H71          9.4600    28.8940    13.7620 h1         1 A1Q       0.029700
     18 H72          8.2060    27.6560    13.6660 h1         1 A1Q       0.029700
     19 H6           9.9250    28.1740    16.1150 h1         1 A1Q       0.062700
     20 HO6          8.5470    26.7390    17.0420 ho         1 A1Q       0.407000
     21 H5           8.7410    30.1580    15.6430 h1         1 A1Q       0.054700
     22 H4           7.2960    28.6130    17.8390 h1         1 A1Q       0.075700
     23 H1           5.1960    30.1300    14.8040 h2         1 A1Q       0.066700
     24 H3           7.5980    31.5920    17.3060 h1         1 A1Q       0.057700
     25 HO3          6.5060    31.7720    19.2370 ho         1 A1Q       0.409000
     26 H2           5.2150    31.6210    16.8860 h1         1 A1Q       0.046700
     27 HO2          4.0800    29.6520    16.9110 ho         1 A1Q       0.404000
     28 H81C         7.2470    32.4940    13.1750 h1         1 A1Q       0.034700
     29 H82C         7.7500    30.7980    13.2100 h1         1 A1Q       0.034700
     30 H83C         6.0510    31.2120    12.9130 h1         1 A1Q       0.034700
     31 HO4          8.9370    29.7460    19.0580 ho         1 A1Q       0.425000
@<TRIPOS>BOND
     1     1     3 1   
     2     1     4 1   
     3     1    11 1   
     4     1    23 1   
     5     2    14 1   
     6     2    16 1   
     7     3    15 1   
     8     4     5 1   
     9     4     6 1   
    10     4    26 1   
    11     5    27 1   
    12     6     7 1   
    13     6     8 1   
    14     6    24 1   
    15     7    25 1   
    16     8     9 1   
    17     8    10 1   
    18     8    22 1   
    19     9    31 1   
    20    10    11 1   
    21    10    12 1   
    22    10    21 1   
    23    12    13 1   
    24    12    14 1   
    25    12    19 1   
    26    13    20 1   
    27    14    17 1   
    28    14    18 1   
    29    15    28 1   
    30    15    29 1   
    31    15    30 1   
@<TRIPOS>SUBSTRUCTURE
     1 A1Q         1 TEMP              0 ****  ****    0 ROOT
