@<TRIPOS>MOLECULE
A1R
   57    60     1     0     0
SMALL
abcg2


@<TRIPOS>ATOM
      1 N1          39.9840    59.5390    24.2370 nb         1 A1R      -0.317000
      2 C2          41.2680    59.6830    24.5820 ca         1 A1R       0.159900
      3 N3          41.7750    59.9240    25.7900 nb         1 A1R      -0.189000
      4 C4          40.8210    60.0200    26.7220 ca         1 A1R       0.141500
      5 C5          39.4500    59.8920    26.5110 ca         1 A1R      -0.096600
      6 C6          39.0350    59.6380    25.1890 ca         1 A1R       0.434900
      7 N6          37.7480    59.4850    24.8440 nv         1 A1R      -1.083900
      8 N7          38.7590    60.0450    27.7020 nc         1 A1R      -0.589100
      9 C8          39.6870    60.2620    28.5990 cd         1 A1R       0.435700
     10 N9          40.9610    60.2650    28.0700 na         1 A1R      -0.273300
     11 C1          42.2060    60.4400    28.7760 c5         1 A1R       0.308300
     12 C7          42.3200    61.7420    29.5680 c5         1 A1R       0.068300
     13 O2          42.7180    62.7900    28.7050 oh         1 A1R      -0.719000
     14 C3          43.3730    61.3650    30.6170 c5         1 A1R       0.135300
     15 O3          44.6720    61.4290    30.0410 oh         1 A1R      -0.672000
     16 O4          42.3650    59.4020    29.7280 os         1 A1R      -0.462000
     17 C9          43.0280    59.9110    30.9150 c5         1 A1R       0.136300
     18 C10         42.0740    59.7200    32.0890 c3         1 A1R       0.218600
     19 O5          42.7170    60.0330    33.3280 os         1 A1R      -0.593400
     20 PA          43.2880    58.8470    34.2770 p5         1 A1R       1.494800
     21 O1A         42.2770    57.7620    34.4270 o          1 A1R      -0.850000
     22 O2A         43.8340    59.5400    35.4880 o          1 A1R      -0.850000
     23 O3A         44.4890    58.2210    33.3840 os         1 A1R      -0.737800
     24 PB          46.0270    58.7210    33.1080 p5         1 A1R       1.468800
     25 O1B         46.1230    60.2070    33.1110 o          1 A1R      -0.846500
     26 O2B         46.4720    57.9270    31.9240 o          1 A1R      -0.846500
     27 O5N         46.7840    58.2210    34.4500 os         1 A1R      -0.611400
     28 C5N         46.8260    56.8280    34.7900 c3         1 A1R       0.240600
     29 N4N         46.0590    55.0970    36.3270 n7         1 A1R      -0.840400
     30 C1N         46.8140    55.1600    37.5910 c5         1 A1R       0.131800
     31 O2N         45.0220    56.0790    38.9120 oh         1 A1R      -0.706000
     32 C2N         46.2840    56.3860    38.3210 c5         1 A1R       0.115300
     33 O3N         45.0250    58.2660    37.5060 oh         1 A1R      -0.753000
     34 C3N         46.0910    57.3960    37.1710 c5         1 A1R       0.149300
     35 C4N         45.8520    56.5040    35.9160 c5         1 A1R       0.086500
     36 H2          41.9840    59.5910    23.7730 h5         1 A1R       0.037100
     37 HN61        37.0160    59.5980    25.5240 hn         1 A1R       0.498000
     38 HN62        37.5020    59.3460    23.8780 hn         1 A1R       0.498000
     39 H8          39.5180    60.4180    29.6530 h5         1 A1R       0.077800
     40 H1          42.9910    60.4040    28.0170 h2         1 A1R       0.111700
     41 H6          41.3710    61.9750    30.0550 h1         1 A1R       0.044700
     42 HO2         42.4510    63.6340    29.0920 ho         1 A1R       0.503000
     43 H3          43.3130    61.9870    31.5130 h1         1 A1R       0.095700
     44 HO3         44.6920    62.2200    29.4810 ho         1 A1R       0.489000
     45 H4          43.9370    59.3330    31.0740 h1         1 A1R       0.148700
     46 H5'1        41.2140    60.3840    31.9920 h1         1 A1R       0.029200
     47 H5'2        41.7140    58.6910    32.0910 h1         1 A1R       0.029200
     48 H5N1        46.6050    56.2150    33.9150 h1         1 A1R       0.028200
     49 H5N2        47.8460    56.6070    35.1110 h1         1 A1R       0.028200
     50 H1N2        47.8800    55.2890    37.3810 h1         1 A1R       0.037700
     51 HO2N        44.4560    56.8440    38.7140 ho         1 A1R       0.482000
     52 H2N         46.9740    56.7580    39.0850 h1         1 A1R       0.030700
     53 HO3N        44.6400    58.6970    36.7000 ho         1 A1R       0.558000
     54 H3N         47.0150    57.9690    37.0410 h1         1 A1R       0.053700
     55 H4N         44.8320    56.6350    35.5580 h1         1 A1R       0.091700
     56 HN4N        45.1540    54.6880    36.5270 hn         1 A1R       0.402000
     57 H1N1        46.6880    54.2430    38.1670 h1         1 A1R       0.037700
@<TRIPOS>BOND
     1     1     2 ar  
     2     1     6 ar  
     3     2     3 ar  
     4     2    36 1   
     5     3     4 ar  
     6     4     5 ar  
     7     4    10 1   
     8     5     6 ar  
     9     5     8 1   
    10     6     7 1   
    11     7    37 1   
    12     7    38 1   
    13     8     9 2   
    14     9    10 1   
    15     9    39 1   
    16    10    11 1   
    17    11    12 1   
    18    11    16 1   
    19    11    40 1   
    20    12    13 1   
    21    12    14 1   
    22    12    41 1   
    23    13    42 1   
    24    14    15 1   
    25    14    17 1   
    26    14    43 1   
    27    15    44 1   
    28    16    17 1   
    29    17    18 1   
    30    17    45 1   
    31    18    19 1   
    32    18    46 1   
    33    18    47 1   
    34    19    20 1   
    35    20    21 1   
    36    20    22 1   
    37    20    23 1   
    38    23    24 1   
    39    24    25 1   
    40    24    26 1   
    41    24    27 1   
    42    27    28 1   
    43    28    35 1   
    44    28    48 1   
    45    28    49 1   
    46    29    30 1   
    47    29    35 1   
    48    29    56 1   
    49    30    32 1   
    50    30    50 1   
    51    30    57 1   
    52    31    32 1   
    53    31    51 1   
    54    32    34 1   
    55    32    52 1   
    56    33    34 1   
    57    33    53 1   
    58    34    35 1   
    59    34    54 1   
    60    35    55 1   
@<TRIPOS>SUBSTRUCTURE
     1 A1R         1 TEMP              0 ****  ****    0 ROOT
