@<TRIPOS>MOLECULE
A1R
   57    60     1     0     0
SMALL
No Charge or Current Charge


@<TRIPOS>ATOM
      1 N1          39.0990    62.3400    26.1600 nb         1 A1R      -0.317000
      2 C2          40.4530    62.3130    26.1340 ca         1 A1R       0.159900
      3 N3          41.2530    61.3670    26.6780 nb         1 A1R      -0.189000
      4 C4          40.6270    60.3520    27.3090 ca         1 A1R       0.141500
      5 C5          39.2580    60.2830    27.3880 ca         1 A1R      -0.096600
      6 C6          38.5040    61.3150    26.7880 ca         1 A1R       0.434900
      7 N6          37.1450    61.3410    26.8120 nv         1 A1R      -1.083900
      8 N7          38.8190    59.1560    28.0750 nc         1 A1R      -0.589100
      9 C8          39.9830    58.5550    28.3940 cd         1 A1R       0.435700
     10 N9          41.1270    59.2530    27.9630 na         1 A1R      -0.273300
     11 C1          42.5220    58.8420    28.1240 c5         1 A1R       0.308300
     12 C7          43.5310    59.9680    28.5850 c5         1 A1R       0.068300
     13 O2          44.4240    60.4240    27.5450 oh         1 A1R      -0.719000
     14 C3          44.3270    59.2700    29.7280 c5         1 A1R       0.135300
     15 O3          45.4280    58.5560    29.1550 oh         1 A1R      -0.672000
     16 O4          42.6090    57.7930    29.1210 os         1 A1R      -0.462000
     17 C9          43.2310    58.3320    30.3160 c5         1 A1R       0.136300
     18 C10         42.1560    59.0420    31.2050 c3         1 A1R       0.218600
     19 O5          42.7120    59.5510    32.4310 os         1 A1R      -0.593400
     20 PA          43.3670    58.5850    33.5440 p5         1 A1R       1.494800
     21 O1A         42.7620    57.2260    33.4590 o          1 A1R      -0.850000
     22 O2A         43.2140    59.1120    34.9310 o          1 A1R      -0.850000
     23 O3A         44.8550    58.5220    33.0420 os         1 A1R      -0.737800
     24 PB          45.7770    59.7500    33.4020 p5         1 A1R       1.468800
     25 O1B         45.1260    61.0760    33.2040 o          1 A1R      -0.846500
     26 O2B         47.0430    59.6850    32.6150 o          1 A1R      -0.846500
     27 O5N         46.0850    59.4660    34.9580 os         1 A1R      -0.611400
     28 C5N         46.8860    58.3470    35.3600 c3         1 A1R       0.240600
     29 N4N         46.7430    56.0670    36.4660 n7         1 A1R      -0.840400
     30 C1N         46.9580    56.3540    37.9010 c5         1 A1R       0.131800
     31 O2N         44.6010    55.7120    38.4000 oh         1 A1R      -0.706000
     32 C2N         45.5430    56.7910    38.3790 c5         1 A1R       0.115300
     33 O3N         43.7260    57.7990    37.0470 oh         1 A1R      -0.753000
     34 C3N         45.1550    57.7890    37.2370 c5         1 A1R       0.149300
     35 C4N         45.9620    57.2540    35.9830 c5         1 A1R       0.086500
     36 H2          40.9480    63.1380    25.6250 h5         1 A1R       0.037100
     37 HN61        36.6910    60.7020    27.4610 hn         1 A1R       0.498000
     38 HN62        36.6780    62.2270    26.6400 hn         1 A1R       0.498000
     39 H8          40.0710    57.6200    28.9350 h5         1 A1R       0.077800
     40 H1          42.8270    58.4360    27.1510 h2         1 A1R       0.111700
     41 H6          42.9760    60.8230    28.9980 h1         1 A1R       0.044700
     42 HO2         43.9170    61.0470    26.9710 ho         1 A1R       0.503000
     43 H3          44.6790    59.9980    30.4740 h1         1 A1R       0.095700
     44 HO3         45.5620    59.0360    28.2990 ho         1 A1R       0.489000
     45 H4          43.6770    57.5050    30.8850 h1         1 A1R       0.148700
     46 H5'1        41.6960    59.8660    30.6460 h1         1 A1R       0.029200
     47 H5'2        41.3570    58.3220    31.4250 h1         1 A1R       0.029200
     48 H5N1        47.4300    57.9120    34.5110 h1         1 A1R       0.028200
     49 H5N2        47.6270    58.6660    36.1050 h1         1 A1R       0.028200
     50 H1N2        47.6900    57.1630    38.0370 h1         1 A1R       0.037700
     51 HO2N        43.8450    56.1160    37.9020 ho         1 A1R       0.482000
     52 H2N         45.5810    57.2880    39.3580 h1         1 A1R       0.030700
     53 HO3N        43.5430    58.3740    36.2250 ho         1 A1R       0.558000
     54 H3N         45.5020    58.7980    37.5040 h1         1 A1R       0.053700
     55 H4N         45.2740    56.9320    35.1890 h1         1 A1R       0.091700
     56 HN4N        46.1170    55.2510    36.4350 hn         1 A1R       0.402000
     57 H1N1        47.3240    55.4710    38.4430 h1         1 A1R       0.037700
@<TRIPOS>BOND
     1     1     2 ar  
     2     1     6 ar  
     3     2     3 ar  
     4     2    36 1   
     5     3     4 ar  
     6     4     5 ar  
     7     4    10 1   
     8     5     6 ar  
     9     5     8 1   
    10     6     7 1   
    11     7    37 1   
    12     7    38 1   
    13     8     9 2   
    14     9    10 1   
    15     9    39 1   
    16    10    11 1   
    17    11    12 1   
    18    11    16 1   
    19    11    40 1   
    20    12    13 1   
    21    12    14 1   
    22    12    41 1   
    23    13    42 1   
    24    14    15 1   
    25    14    17 1   
    26    14    43 1   
    27    15    44 1   
    28    16    17 1   
    29    17    18 1   
    30    17    45 1   
    31    18    19 1   
    32    18    46 1   
    33    18    47 1   
    34    19    20 1   
    35    20    21 1   
    36    20    22 1   
    37    20    23 1   
    38    23    24 1   
    39    24    25 1   
    40    24    26 1   
    41    24    27 1   
    42    27    28 1   
    43    28    35 1   
    44    28    48 1   
    45    28    49 1   
    46    29    30 1   
    47    29    35 1   
    48    29    56 1   
    49    30    32 1   
    50    30    50 1   
    51    30    57 1   
    52    31    32 1   
    53    31    51 1   
    54    32    34 1   
    55    32    52 1   
    56    33    34 1   
    57    33    53 1   
    58    34    35 1   
    59    34    54 1   
    60    35    55 1   
@<TRIPOS>SUBSTRUCTURE
     1 A1R         1 TEMP              0 ****  ****    0 ROOT
