@<TRIPOS>MOLECULE
A1T
   97   102     1     0     0
SMALL
No Charge or Current Charge


@<TRIPOS>ATOM
      1 O25          1.5130     0.4970    -2.7220 o          1 A1T      -0.590100
      2 C23          1.2940    -0.2090    -1.7390 c          1 A1T       0.512600
      3 C26          0.6970     0.4040    -0.4570 ca         1 A1T       0.292500
      4 C30         -0.0990     1.5670    -0.5690 ca         1 A1T      -0.112000
      5 C34         -0.6220     2.1770     0.5830 ca         1 A1T      -0.082000
      6 C36         -0.3230     1.6160     1.8350 ca         1 A1T      -0.113300
      7 C38         -0.8600     2.2390     3.1160 c3         1 A1T      -0.029100
      8 C40          0.0130     3.4180     3.5960 c3         1 A1T      -0.075400
      9 C43         -0.5070     4.0680     4.8980 c3         1 A1T      -0.076400
     10 C46          0.3680     5.2470     5.3760 c3         1 A1T      -0.075400
     11 C48         -0.1500     5.8950     6.6740 c3         1 A1T      -0.089100
     12 C33          0.4960     0.4710     1.8760 ca         1 A1T       0.330900
     13 N29          1.0020    -0.1190     0.7700 nb         1 A1T      -0.651000
     14 N22          1.6510    -1.5880    -1.7610 n          1 A1T      -0.389800
     15 C24          0.8250    -2.6140    -1.0540 c6         1 A1T       0.125700
     16 C28          1.6710    -3.5230    -0.1320 c6         1 A1T      -0.091400
     17 C32          0.7700    -4.5370     0.6080 c6         1 A1T       0.165800
     18 N35         -0.0370    -5.3520    -0.3450 n3         1 A1T      -0.699600
     19 C37         -0.8410    -6.4190     0.3260 c3         1 A1T       0.119500
     20 C39         -0.0440    -7.4690     1.1240 ca         1 A1T       0.344300
     21 C42          0.1540    -7.3120     2.5110 ca         1 A1T      -0.162000
     22 C45          0.8780    -8.2840     3.2210 ca         1 A1T      -0.074000
     23 C47          1.3750    -9.3860     2.5080 ca         1 A1T      -0.164000
     24 C44          1.1310    -9.4760     1.1270 ca         1 A1T       0.336900
     25 N41          0.4330    -8.5420     0.4410 nb         1 A1T      -0.644000
     26 C31         -0.8760    -4.4950    -1.2270 c6         1 A1T       0.165800
     27 C27         -0.0170    -3.4850    -2.0210 c6         1 A1T      -0.091400
     28 C21          2.5770    -2.0580    -2.8250 c3         1 A1T       0.147300
     29 C20          3.9840    -1.4800    -2.7060 ca         1 A1T      -0.090300
     30 C18          4.7770    -1.7680    -1.5810 ca         1 A1T      -0.087000
     31 C16          6.0730    -1.2360    -1.4690 ca         1 A1T      -0.101500
     32 C19          4.5050    -0.6550    -3.7200 ca         1 A1T      -0.087000
     33 C17          5.8020    -0.1240    -3.6070 ca         1 A1T      -0.101500
     34 C15          6.6140    -0.4030    -2.4790 cp         1 A1T      -0.037000
     35 C14          7.9960     0.1650    -2.3600 cp         1 A1T      -0.012000
     36 C11          8.5320     0.5360    -1.1030 ca         1 A1T      -0.109500
     37 C7           9.8270     1.0690    -0.9900 ca         1 A1T      -0.078500
     38 C12          8.8170     0.3420    -3.5000 ca         1 A1T      -0.109500
     39 C8          10.1120     0.8740    -3.3920 ca         1 A1T      -0.078500
     40 C4          10.6280     1.2640    -2.1350 ca         1 A1T      -0.142600
     41 C2          12.0300     1.8190    -1.9860 c          1 A1T       0.618700
     42 O1          12.6740     1.6190    -0.9620 o          1 A1T      -0.600100
     43 N3          12.6140     2.4750    -3.0940 n          1 A1T      -0.407800
     44 C6          14.0810     2.7500    -3.0660 c6         1 A1T       0.098000
     45 C10         14.6690     3.1150    -4.4500 c6         1 A1T      -0.091900
     46 C13         13.8890     4.2720    -5.1050 c6         1 A1T      -0.074400
     47 C9          12.3940     3.9080    -5.1840 c6         1 A1T      -0.091900
     48 C5          11.8350     3.5460    -3.7880 c6         1 A1T       0.098000
     49 H30         -0.3120     1.9880    -1.5480 ha         1 A1T       0.140000
     50 H34         -1.2420     3.0680     0.5030 ha         1 A1T       0.122000
     51 H381        -1.8870     2.5920     2.9580 hc         1 A1T       0.049700
     52 H382        -0.9140     1.4840     3.9100 hc         1 A1T       0.049700
     53 H401         0.0570     4.1780     2.8060 hc         1 A1T       0.044200
     54 H402         1.0390     3.0630     3.7550 hc         1 A1T       0.044200
     55 H431        -1.5330     4.4220     4.7380 hc         1 A1T       0.037700
     56 H432        -0.5500     3.3070     5.6880 hc         1 A1T       0.037700
     57 H461         0.4120     6.0100     4.5890 hc         1 A1T       0.038700
     58 H462         1.3950     4.8960     5.5380 hc         1 A1T       0.038700
     59 H481        -0.1720     5.1640     7.4910 hc         1 A1T       0.032033
     60 H482         0.5020     6.7250     6.9730 hc         1 A1T       0.032033
     61 H483        -1.1640     6.2890     6.5330 hc         1 A1T       0.032033
     62 H33          0.7610     0.0120     2.8280 h4         1 A1T       0.020100
     63 H24          0.0900    -2.1050    -0.4180 h1         1 A1T       0.062700
     64 H281         2.2130    -2.9120     0.6010 hc         1 A1T       0.058700
     65 H282         2.4260    -4.0690    -0.7120 hc         1 A1T       0.058700
     66 H321         1.4150    -5.1840     1.2200 h1         1 A1T       0.032950
     67 H322         0.1070    -3.9940     1.2990 h1         1 A1T       0.032950
     68 H371        -1.4290    -6.9570    -0.4300 h1         1 A1T       0.042200
     69 H372        -1.5690    -5.9560     1.0060 h1         1 A1T       0.042200
     70 H42         -0.2480    -6.4430     3.0260 ha         1 A1T       0.120000
     71 H45          1.0480    -8.1860     4.2910 ha         1 A1T       0.118000
     72 H47          1.9410   -10.1640     3.0120 ha         1 A1T       0.124000
     73 H44          1.5040   -10.3220     0.5520 h4         1 A1T       0.020100
     74 H311        -1.6170    -3.9440    -0.6270 h1         1 A1T       0.032950
     75 H312        -1.4360    -5.1160    -1.9410 h1         1 A1T       0.032950
     76 H271         0.6250    -4.0400    -2.7170 hc         1 A1T       0.058700
     77 H272        -0.6680    -2.8460    -2.6310 hc         1 A1T       0.058700
     78 H211         2.1500    -1.8040    -3.8040 h1         1 A1T       0.056700
     79 H212         2.6640    -3.1500    -2.7920 h1         1 A1T       0.056700
     80 H18          4.3900    -2.4060    -0.7900 ha         1 A1T       0.117000
     81 H16          6.6670    -1.4860    -0.5940 ha         1 A1T       0.113000
     82 H19          3.9030    -0.4170    -4.5940 ha         1 A1T       0.117000
     83 H17          6.1730     0.5220    -4.3980 ha         1 A1T       0.113000
     84 H11          7.9330     0.4220    -0.2030 ha         1 A1T       0.118000
     85 H7          10.2040     1.3450    -0.0070 ha         1 A1T       0.121500
     86 H12          8.4540     0.0430    -4.4810 ha         1 A1T       0.118000
     87 H8          10.7200     0.9650    -4.2900 ha         1 A1T       0.121500
     88 H61         14.6120     1.8680    -2.6810 h1         1 A1T       0.053700
     89 H62         14.2710     3.5760    -2.3650 h1         1 A1T       0.053700
     90 H101        14.6350     2.2320    -5.1030 hc         1 A1T       0.048200
     91 H102        15.7280     3.3860    -4.3450 hc         1 A1T       0.048200
     92 H131        14.0220     5.1930    -4.5200 hc         1 A1T       0.041200
     93 H132        14.2840     4.4740    -6.1100 hc         1 A1T       0.041200
     94 H91         11.8250     4.7460    -5.6070 hc         1 A1T       0.048200
     95 H92         12.2540     3.0570    -5.8650 hc         1 A1T       0.048200
     96 H51         11.8560     4.4470    -3.1570 h1         1 A1T       0.053700
     97 H52         10.7790     3.2670    -3.8910 h1         1 A1T       0.053700
@<TRIPOS>BOND
     1     1     2 2   
     2     2     3 1   
     3     2    14 1   
     4     3     4 ar  
     5     3    13 ar  
     6     4     5 ar  
     7     4    49 1   
     8     5     6 ar  
     9     5    50 1   
    10     6     7 1   
    11     6    12 ar  
    12     7     8 1   
    13     7    51 1   
    14     7    52 1   
    15     8     9 1   
    16     8    53 1   
    17     8    54 1   
    18     9    10 1   
    19     9    55 1   
    20     9    56 1   
    21    10    11 1   
    22    10    57 1   
    23    10    58 1   
    24    11    59 1   
    25    11    60 1   
    26    11    61 1   
    27    12    13 ar  
    28    12    62 1   
    29    14    15 1   
    30    14    28 1   
    31    15    16 1   
    32    15    27 1   
    33    15    63 1   
    34    16    17 1   
    35    16    64 1   
    36    16    65 1   
    37    17    18 1   
    38    17    66 1   
    39    17    67 1   
    40    18    19 1   
    41    18    26 1   
    42    19    20 1   
    43    19    68 1   
    44    19    69 1   
    45    20    21 ar  
    46    20    25 ar  
    47    21    22 ar  
    48    21    70 1   
    49    22    23 ar  
    50    22    71 1   
    51    23    24 ar  
    52    23    72 1   
    53    24    25 ar  
    54    24    73 1   
    55    26    27 1   
    56    26    74 1   
    57    26    75 1   
    58    27    76 1   
    59    27    77 1   
    60    28    29 1   
    61    28    78 1   
    62    28    79 1   
    63    29    30 ar  
    64    29    32 ar  
    65    30    31 ar  
    66    30    80 1   
    67    31    34 ar  
    68    31    81 1   
    69    32    33 ar  
    70    32    82 1   
    71    33    34 ar  
    72    33    83 1   
    73    34    35 1   
    74    35    36 ar  
    75    35    38 ar  
    76    36    37 ar  
    77    36    84 1   
    78    37    40 ar  
    79    37    85 1   
    80    38    39 ar  
    81    38    86 1   
    82    39    40 ar  
    83    39    87 1   
    84    40    41 1   
    85    41    42 2   
    86    41    43 1   
    87    43    44 1   
    88    43    48 1   
    89    44    45 1   
    90    44    88 1   
    91    44    89 1   
    92    45    46 1   
    93    45    90 1   
    94    45    91 1   
    95    46    47 1   
    96    46    92 1   
    97    46    93 1   
    98    47    48 1   
    99    47    94 1   
   100    47    95 1   
   101    48    96 1   
   102    48    97 1   
@<TRIPOS>SUBSTRUCTURE
     1 A1T         1 TEMP              0 ****  ****    0 ROOT
