@<TRIPOS>MOLECULE
A1T
   97   102     1     0     0
SMALL
abcg2


@<TRIPOS>ATOM
      1 O25          1.7820     0.5560    -2.6090 o          1 A1T      -0.590100
      2 C23          1.4050    -0.2260    -1.7470 c          1 A1T       0.512600
      3 C26          0.7540     0.3330    -0.5140 ca         1 A1T       0.292500
      4 C30         -0.1610     1.3700    -0.6400 ca         1 A1T      -0.112000
      5 C34         -0.6610     1.9520     0.5120 ca         1 A1T      -0.082000
      6 C36         -0.2230     1.5090     1.7550 ca         1 A1T      -0.113300
      7 C38         -0.6530     2.1640     3.0320 c3         1 A1T      -0.029100
      8 C40          0.2240     3.3760     3.3570 c3         1 A1T      -0.075400
      9 C43         -0.1550     4.0490     4.6700 c3         1 A1T      -0.076400
     10 C46          0.7340     5.2420     5.0010 c3         1 A1T      -0.075400
     11 C48          0.3640     5.9050     6.3200 c3         1 A1T      -0.089100
     12 C33          0.6970     0.4620     1.7590 ca         1 A1T       0.330900
     13 N29          1.1690    -0.1160     0.6650 nb         1 A1T      -0.651000
     14 N22          1.6110    -1.5560    -1.8390 n          1 A1T      -0.389800
     15 C24          0.8490    -2.5460    -1.0830 c6         1 A1T       0.125700
     16 C28          1.7180    -3.4140    -0.1850 c6         1 A1T      -0.091400
     17 C32          0.8530    -4.3890     0.5960 c6         1 A1T       0.165800
     18 N35          0.0440    -5.2120    -0.2880 n3         1 A1T      -0.699600
     19 C37         -0.7360    -6.1840     0.4520 c3         1 A1T       0.119500
     20 C39          0.1240    -7.1950     1.1610 ca         1 A1T       0.344300
     21 C42          0.0620    -7.3420     2.5420 ca         1 A1T      -0.162000
     22 C45          0.8640    -8.2920     3.1580 ca         1 A1T      -0.074000
     23 C47          1.7060    -9.0610     2.3720 ca         1 A1T      -0.164000
     24 C44          1.6990    -8.8410     1.0010 ca         1 A1T       0.336900
     25 N41          0.9310    -7.9380     0.4060 nb         1 A1T      -0.644000
     26 C31         -0.8200    -4.3930    -1.1210 c6         1 A1T       0.165800
     27 C27         -0.0150    -3.4300    -1.9800 c6         1 A1T      -0.091400
     28 C21          2.4790    -2.0030    -2.9210 c3         1 A1T       0.147300
     29 C20          3.8870    -1.4800    -2.7950 ca         1 A1T      -0.090300
     30 C18          4.6550    -1.7650    -1.6700 ca         1 A1T      -0.087000
     31 C16          5.9540    -1.2980    -1.5580 ca         1 A1T      -0.101500
     32 C19          4.4580    -0.7140    -3.8030 ca         1 A1T      -0.087000
     33 C17          5.7580    -0.2440    -3.6950 ca         1 A1T      -0.101500
     34 C15          6.5290    -0.5220    -2.5660 cp         1 A1T      -0.037000
     35 C14          7.9060    -0.0050    -2.4320 cp         1 A1T      -0.012000
     36 C11          8.4270     0.3250    -1.1790 ca         1 A1T      -0.109500
     37 C7           9.7200     0.8020    -1.0450 ca         1 A1T      -0.078500
     38 C12          8.7250     0.1710    -3.5490 ca         1 A1T      -0.109500
     39 C8          10.0080     0.6770    -3.4210 ca         1 A1T      -0.078500
     40 C4          10.5160     1.0030    -2.1670 ca         1 A1T      -0.142600
     41 C2          11.9370     1.4410    -1.9920 c          1 A1T       0.618700
     42 O1          12.6770     0.7740    -1.2770 o          1 A1T      -0.600100
     43 N3          12.3430     2.5380    -2.6590 n          1 A1T      -0.407800
     44 C6          13.7450     2.9300    -2.6620 c6         1 A1T       0.098000
     45 C10         14.2140     3.1900    -4.0870 c6         1 A1T      -0.091900
     46 C13         13.3300     4.2160    -4.7870 c6         1 A1T      -0.074400
     47 C9          11.8630     3.8090    -4.7020 c6         1 A1T      -0.091900
     48 C5          11.4620     3.5270    -3.2630 c6         1 A1T       0.098000
     49 H30         -0.4770     1.7120    -1.6160 ha         1 A1T       0.140000
     50 H34         -1.3850     2.7560     0.4460 ha         1 A1T       0.122000
     51 H381        -1.6970     2.4800     2.9560 hc         1 A1T       0.049700
     52 H382        -0.5980     1.4460     3.8540 hc         1 A1T       0.049700
     53 H401         0.1580     4.1000     2.5390 hc         1 A1T       0.044200
     54 H402         1.2710     3.0580     3.4000 hc         1 A1T       0.044200
     55 H431        -1.2000     4.3740     4.6270 hc         1 A1T       0.037700
     56 H432        -0.0970     3.3170     5.4830 hc         1 A1T       0.037700
     57 H461         0.6730     5.9740     4.1910 hc         1 A1T       0.038700
     58 H462         1.7780     4.9140     5.0350 hc         1 A1T       0.038700
     59 H481         0.4400     5.2000     7.1500 hc         1 A1T       0.032033
     60 H482         1.0190     6.7480     6.5430 hc         1 A1T       0.032033
     61 H483        -0.6610     6.2790     6.3000 hc         1 A1T       0.032033
     62 H33          1.0680     0.0750     2.7030 h4         1 A1T       0.020100
     63 H24          0.1620    -1.9990    -0.4380 h1         1 A1T       0.062700
     64 H281         2.2670    -2.7800     0.5120 hc         1 A1T       0.058700
     65 H282         2.4500    -3.9730    -0.7780 hc         1 A1T       0.058700
     66 H321         1.4950    -5.0330     1.1990 h1         1 A1T       0.032950
     67 H322         0.2180    -3.8240     1.3040 h1         1 A1T       0.032950
     68 H371        -1.3790    -6.7140    -0.2580 h1         1 A1T       0.042200
     69 H372        -1.4070    -5.7000     1.1810 h1         1 A1T       0.042200
     70 H42         -0.6020    -6.7190     3.1260 ha         1 A1T       0.120000
     71 H45          0.8330    -8.4250     4.2320 ha         1 A1T       0.118000
     72 H47          2.3520    -9.8140     2.8020 ha         1 A1T       0.124000
     73 H44          2.3430    -9.4270     0.3540 h4         1 A1T       0.020100
     74 H311        -1.5410    -3.8190    -0.5110 h1         1 A1T       0.032950
     75 H312        -1.4080    -5.0520    -1.7640 h1         1 A1T       0.032950
     76 H271         0.5990    -4.0060    -2.6780 hc         1 A1T       0.058700
     77 H272        -0.6950    -2.8140    -2.5730 hc         1 A1T       0.058700
     78 H211         2.0640    -1.7250    -3.8930 h1         1 A1T       0.056700
     79 H212         2.5050    -3.0920    -2.8950 h1         1 A1T       0.056700
     80 H18          4.2430    -2.3660    -0.8700 ha         1 A1T       0.117000
     81 H16          6.5290    -1.5600    -0.6790 ha         1 A1T       0.113000
     82 H19          3.8770    -0.4650    -4.6820 ha         1 A1T       0.117000
     83 H17          6.1600     0.3730    -4.4880 ha         1 A1T       0.113000
     84 H11          7.8150     0.2210    -0.2920 ha         1 A1T       0.118000
     85 H7          10.0990     1.0420    -0.0590 ha         1 A1T       0.121500
     86 H12          8.3680    -0.1020    -4.5330 ha         1 A1T       0.118000
     87 H8          10.6200     0.8010    -4.3060 ha         1 A1T       0.121500
     88 H61         14.3380     2.1470    -2.1960 h1         1 A1T       0.053700
     89 H62         13.8620     3.8350    -2.0560 h1         1 A1T       0.053700
     90 H101        14.2020     2.2480    -4.6430 hc         1 A1T       0.048200
     91 H102        15.2520     3.5300    -4.0590 hc         1 A1T       0.048200
     92 H131        13.4640     5.1950    -4.3160 hc         1 A1T       0.041200
     93 H132        13.6330     4.3290    -5.8300 hc         1 A1T       0.041200
     94 H91         11.2200     4.5950    -5.1020 hc         1 A1T       0.048200
     95 H92         11.6890     2.9140    -5.3080 hc         1 A1T       0.048200
     96 H51         11.5340     4.4500    -2.6740 h1         1 A1T       0.053700
     97 H52         10.4280     3.2010    -3.2020 h1         1 A1T       0.053700
@<TRIPOS>BOND
     1     1     2 2   
     2     2     3 1   
     3     2    14 1   
     4     3     4 ar  
     5     3    13 ar  
     6     4     5 ar  
     7     4    49 1   
     8     5     6 ar  
     9     5    50 1   
    10     6     7 1   
    11     6    12 ar  
    12     7     8 1   
    13     7    51 1   
    14     7    52 1   
    15     8     9 1   
    16     8    53 1   
    17     8    54 1   
    18     9    10 1   
    19     9    55 1   
    20     9    56 1   
    21    10    11 1   
    22    10    57 1   
    23    10    58 1   
    24    11    59 1   
    25    11    60 1   
    26    11    61 1   
    27    12    13 ar  
    28    12    62 1   
    29    14    15 1   
    30    14    28 1   
    31    15    16 1   
    32    15    27 1   
    33    15    63 1   
    34    16    17 1   
    35    16    64 1   
    36    16    65 1   
    37    17    18 1   
    38    17    66 1   
    39    17    67 1   
    40    18    19 1   
    41    18    26 1   
    42    19    20 1   
    43    19    68 1   
    44    19    69 1   
    45    20    21 ar  
    46    20    25 ar  
    47    21    22 ar  
    48    21    70 1   
    49    22    23 ar  
    50    22    71 1   
    51    23    24 ar  
    52    23    72 1   
    53    24    25 ar  
    54    24    73 1   
    55    26    27 1   
    56    26    74 1   
    57    26    75 1   
    58    27    76 1   
    59    27    77 1   
    60    28    29 1   
    61    28    78 1   
    62    28    79 1   
    63    29    30 ar  
    64    29    32 ar  
    65    30    31 ar  
    66    30    80 1   
    67    31    34 ar  
    68    31    81 1   
    69    32    33 ar  
    70    32    82 1   
    71    33    34 ar  
    72    33    83 1   
    73    34    35 1   
    74    35    36 ar  
    75    35    38 ar  
    76    36    37 ar  
    77    36    84 1   
    78    37    40 ar  
    79    37    85 1   
    80    38    39 ar  
    81    38    86 1   
    82    39    40 ar  
    83    39    87 1   
    84    40    41 1   
    85    41    42 2   
    86    41    43 1   
    87    43    44 1   
    88    43    48 1   
    89    44    45 1   
    90    44    88 1   
    91    44    89 1   
    92    45    46 1   
    93    45    90 1   
    94    45    91 1   
    95    46    47 1   
    96    46    92 1   
    97    46    93 1   
    98    47    48 1   
    99    47    94 1   
   100    47    95 1   
   101    48    96 1   
   102    48    97 1   
@<TRIPOS>SUBSTRUCTURE
     1 A1T         1 TEMP              0 ****  ****    0 ROOT
