@<TRIPOS>MOLECULE
A1U
   17    17     1     0     0
SMALL
abcg2


@<TRIPOS>ATOM
      1 CAB          1.1310    -1.2960    -0.0240 ca         1 A1U       0.326900
      2 CAC          1.5520     0.0230     0.0030 ca         1 A1U       0.271300
      3 CAE         -0.6350     0.6970    -0.0780 ca         1 A1U       0.245300
      4 CAF         -1.0320    -0.6530    -0.1070 ca         1 A1U       0.533300
      5 CAG          2.9980     0.4050     0.0560 c3         1 A1U      -0.132400
      6 CAH         -1.6370     1.8010    -0.1090 c3         1 A1U      -0.151400
      7 NAA         -0.1550    -1.6260    -0.0790 nb         1 A1U      -0.662000
      8 NAD          0.6460     0.9980    -0.0240 nb         1 A1U      -0.627000
      9 OAI         -2.3220    -1.0390    -0.1570 oh         1 A1U      -0.633300
     10 H1           1.8470    -2.1090    -0.0290 h4         1 A1U       0.032100
     11 H2           3.2760     0.9430    -0.8510 hc         1 A1U       0.051700
     12 H3           3.1960     1.0710     0.8950 hc         1 A1U       0.051700
     13 H4           3.6360    -0.4710     0.1390 hc         1 A1U       0.051700
     14 H5          -2.2010     1.7940    -1.0440 hc         1 A1U       0.055367
     15 H6          -2.3440     1.7290     0.7090 hc         1 A1U       0.055367
     16 H7          -1.1340     2.7690    -0.0350 hc         1 A1U       0.055367
     17 H9          -2.9140    -0.2810    -0.2360 ho         1 A1U       0.475000
@<TRIPOS>BOND
     1     1     2 ar  
     2     1     7 ar  
     3     1    10 1   
     4     2     5 1   
     5     2     8 ar  
     6     3     4 ar  
     7     3     6 1   
     8     3     8 ar  
     9     4     7 ar  
    10     4     9 1   
    11     5    11 1   
    12     5    12 1   
    13     5    13 1   
    14     6    14 1   
    15     6    15 1   
    16     6    16 1   
    17     9    17 1   
@<TRIPOS>SUBSTRUCTURE
     1 A1U         1 TEMP              0 ****  ****    0 ROOT
