@<TRIPOS>MOLECULE
A1U
   17    17     1     0     0
SMALL
No Charge or Current Charge


@<TRIPOS>ATOM
      1 CAB          1.1400    -1.3380    -0.0300 ca         1 A1U       0.326900
      2 CAC          1.5540     0.0260    -0.0040 ca         1 A1U       0.271300
      3 CAE         -0.6500     0.6880    -0.0910 ca         1 A1U       0.245300
      4 CAF         -1.0580    -0.6930    -0.1160 ca         1 A1U       0.533300
      5 CAG          3.0200     0.4180     0.0590 c3         1 A1U      -0.132400
      6 CAH         -1.6530     1.8360    -0.1250 c3         1 A1U      -0.151400
      7 NAA         -0.1690    -1.7100    -0.0860 nb         1 A1U      -0.662000
      8 NAD          0.6610     1.0530    -0.0340 nb         1 A1U      -0.627000
      9 OAI         -2.3630    -1.0850    -0.1730 oh         1 A1U      -0.633300
     10 H1           1.8730    -2.1440    -0.0050 h4         1 A1U       0.032100
     11 H2           3.3040     1.0160    -0.8150 hc         1 A1U       0.051700
     12 H3           3.2290     1.0120     0.9570 hc         1 A1U       0.051700
     13 H4           3.6710    -0.4640     0.0840 hc         1 A1U       0.051700
     14 H5          -2.2580     1.8040    -1.0390 hc         1 A1U       0.055367
     15 H6          -2.3310     1.7930     0.7360 hc         1 A1U       0.055367
     16 H7          -1.1540     2.8130    -0.0980 hc         1 A1U       0.055367
     17 H9          -2.9080    -0.2720    -0.1900 ho         1 A1U       0.475000
@<TRIPOS>BOND
     1     1     2 ar  
     2     1     7 ar  
     3     1    10 1   
     4     2     5 1   
     5     2     8 ar  
     6     3     4 ar  
     7     3     6 1   
     8     3     8 ar  
     9     4     7 ar  
    10     4     9 1   
    11     5    11 1   
    12     5    12 1   
    13     5    13 1   
    14     6    14 1   
    15     6    15 1   
    16     6    16 1   
    17     9    17 1   
@<TRIPOS>SUBSTRUCTURE
     1 A1U         1 TEMP              0 ****  ****    0 ROOT
