@<TRIPOS>MOLECULE
A1V
   44    48     1     0     0
SMALL
No Charge or Current Charge


@<TRIPOS>ATOM
      1 C10          0.1940    -0.9110     0.4750 cc         1 A1V       0.231000
      2 C13          1.1170     0.2420     0.2270 ca         1 A1V       0.332000
      3 C15          3.3700     0.9730     0.1660 ca         1 A1V       0.333000
      4 C17          1.6220     2.5030    -0.5340 ca         1 A1V      -0.061000
      5 C21         -2.5310     2.7320    -1.3970 cc         1 A1V       0.252500
      6 C22         -2.9980     2.7110    -0.0970 cd         1 A1V      -0.235000
      7 C24         -3.4040     3.2510    -2.5340 c          1 A1V       0.634500
      8 N01         -6.7520    -2.0340    -2.5840 n8         1 A1V      -0.973200
      9 C03         -5.1570    -2.1860    -0.5720 cc         1 A1V       0.479700
     10 N04         -3.9730    -1.5930    -0.4820 nd         1 A1V      -0.548000
     11 C05         -3.0690    -2.4400     0.1600 cd         1 A1V       0.273000
     12 C06         -3.5860    -3.6600     0.5500 cc         1 A1V      -0.271000
     13 S07         -5.2660    -3.7910     0.1150 ss         1 A1V      -0.134400
     14 C08         -1.6730    -2.1210     0.4350 cd         1 A1V       0.393400
     15 N09         -1.1250    -0.9590     0.0870 nc         1 A1V      -0.557000
     16 C11          0.6750    -2.0430     1.0980 cd         1 A1V      -0.199000
     17 S12         -0.5880    -3.2500     1.2550 ss         1 A1V      -0.090400
     18 N14          2.4460     0.0080     0.4250 nb         1 A1V      -0.636000
     19 C16          2.9800     2.2280    -0.3350 ca         1 A1V      -0.166000
     20 C18          0.6690     1.5120    -0.2330 ca         1 A1V      -0.122500
     21 C19         -0.7500     1.8460    -0.3940 cd         1 A1V       0.484900
     22 N20         -1.2310     2.2720    -1.5530 nc         1 A1V      -0.574000
     23 S23         -1.7860     2.0960     1.0100 ss         1 A1V      -0.176400
     24 O25         -2.9600     3.2690    -3.6780 o          1 A1V      -0.717000
     25 O26         -4.5390     3.6480    -2.2890 o          1 A1V      -0.717000
     26 C27          4.8080     0.6710     0.3830 cc         1 A1V       0.355400
     27 N28          5.3610    -0.5210     0.1610 nd         1 A1V      -0.551000
     28 C29          6.7380    -0.4980     0.4260 cd         1 A1V       0.236500
     29 C30          7.1900     0.7430     0.8400 cc         1 A1V      -0.234000
     30 S31          5.9130     1.9210     0.9090 ss         1 A1V      -0.186400
     31 C32          7.7090    -1.6690     0.2970 c          1 A1V       0.631500
     32 O33          8.8950    -1.5000     0.5640 o          1 A1V      -0.706000
     33 O34          7.2850    -2.7590    -0.0740 o          1 A1V      -0.706000
     34 H1           1.3110     3.4790    -0.9020 ha         1 A1V       0.127000
     35 H2          -3.9700     3.0270     0.2620 h4         1 A1V       0.151000
     36 H3          -7.0210    -3.0250    -2.5290 hn         1 A1V       0.387500
     37 H4          -7.6110    -1.5650    -2.8990 hn         1 A1V       0.387500
     38 H6          -6.1940    -0.4510    -1.2750 h1         1 A1V       0.075700
     39 H7          -7.2340    -1.6770    -0.5380 h1         1 A1V       0.075700
     40 H8          -3.1000    -4.4830     1.0590 h4         1 A1V       0.153000
     41 H9           1.6730    -2.2340     1.4710 h4         1 A1V       0.188000
     42 H10          3.7220     2.9880    -0.5640 ha         1 A1V       0.121000
     43 H12          8.2000     1.0300     1.1050 h4         1 A1V       0.158000
     44 C02         -6.3790    -1.5330    -1.2130 c3         1 A1V       0.098500
@<TRIPOS>BOND
     1     1     2 1   
     2     1    15 1   
     3     1    16 2   
     4     2    18 ar  
     5     2    20 ar  
     6     3    18 ar  
     7     3    19 ar  
     8     3    26 1   
     9     4    19 ar  
    10     4    20 ar  
    11     4    34 1   
    12     5     6 2   
    13     5     7 1   
    14     5    22 1   
    15     6    23 1   
    16     6    35 1   
    17     7    24 1   
    18     7    25 1   
    19     8    36 1   
    20     8    37 1   
    21     8    44 1   
    22     9    10 2   
    23     9    13 1   
    24     9    44 1   
    25    10    11 1   
    26    11    12 2   
    27    11    14 1   
    28    12    13 1   
    29    12    40 1   
    30    14    15 2   
    31    14    17 1   
    32    16    17 1   
    33    16    41 1   
    34    19    42 1   
    35    20    21 1   
    36    21    22 2   
    37    21    23 1   
    38    26    27 2   
    39    26    30 1   
    40    27    28 1   
    41    28    29 2   
    42    28    31 1   
    43    29    30 1   
    44    29    43 1   
    45    31    32 1   
    46    31    33 1   
    47    38    44 1   
    48    39    44 1   
@<TRIPOS>SUBSTRUCTURE
     1 A1V         1 TEMP              0 ****  ****    0 ROOT
