@<TRIPOS>MOLECULE
A1V
   44    48     1     0     0
SMALL
abcg2


@<TRIPOS>ATOM
      1 C10          0.3210    -0.9400     0.5340 cc         1 A1V       0.231000
      2 C13          1.1550     0.2200     0.1880 ca         1 A1V       0.332000
      3 C15          3.2990     1.0040    -0.0560 ca         1 A1V       0.333000
      4 C17          1.4860     2.4430    -0.6100 ca         1 A1V      -0.061000
      5 C21         -2.8400     2.1790    -1.0600 cc         1 A1V       0.252500
      6 C22         -3.1580     2.1500     0.2630 cd         1 A1V      -0.235000
      7 C24         -3.8370     2.4320    -2.1690 c          1 A1V       0.634500
      8 N01         -6.0070    -1.4860    -2.8000 n8         1 A1V      -0.973200
      9 C03         -4.8940    -1.8100    -0.6710 cc         1 A1V       0.479700
     10 N04         -3.6670    -1.4480    -0.5150 nd         1 A1V      -0.548000
     11 C05         -2.9500    -2.3780     0.1830 cd         1 A1V       0.273000
     12 C06         -3.6460    -3.4890     0.5600 cc         1 A1V      -0.271000
     13 S07         -5.2640    -3.3540     0.0330 ss         1 A1V      -0.134400
     14 C08         -1.5570    -2.0850     0.4870 cd         1 A1V       0.393400
     15 N09         -0.9570    -1.0170     0.0760 nc         1 A1V      -0.557000
     16 C11          0.7230    -1.9950     1.3020 cd         1 A1V      -0.199000
     17 S12         -0.5610    -3.1070     1.4750 ss         1 A1V      -0.090400
     18 N14          2.4650     0.0300     0.2800 nb         1 A1V      -0.636000
     19 C16          2.8480     2.2320    -0.5370 ca         1 A1V      -0.166000
     20 C18          0.6020     1.4420    -0.2240 ca         1 A1V      -0.122500
     21 C19         -0.8430     1.7190    -0.2550 cd         1 A1V       0.484900
     22 N20         -1.5170     1.9510    -1.3300 nc         1 A1V      -0.574000
     23 S23         -1.7700     1.8230     1.2020 ss         1 A1V      -0.176400
     24 O25         -3.3810     2.4920    -3.3230 o          1 A1V      -0.717000
     25 O26         -5.0250     2.5590    -1.8120 o          1 A1V      -0.717000
     26 C27          4.7320     0.7150     0.0900 cc         1 A1V       0.355400
     27 N28          5.2190    -0.4540     0.3560 nd         1 A1V      -0.551000
     28 C29          6.5790    -0.4360     0.4370 cd         1 A1V       0.236500
     29 C30          7.1410     0.7910     0.2280 cc         1 A1V      -0.234000
     30 S31          5.9350     1.9540    -0.0770 ss         1 A1V      -0.186400
     31 C32          7.3790    -1.6900     0.7350 c          1 A1V       0.631500
     32 O33          8.6140    -1.5370     0.7810 o          1 A1V      -0.706000
     33 O34          6.7300    -2.7350     0.9010 o          1 A1V      -0.706000
     34 H1           1.1030     3.3950    -0.9540 ha         1 A1V       0.127000
     35 H2          -4.1250     2.3000     0.7150 h4         1 A1V       0.151000
     36 H3          -6.5620    -2.3320    -2.8420 hn         1 A1V       0.387500
     37 H4          -6.5110    -0.7980    -3.3450 hn         1 A1V       0.387500
     38 H6          -5.5820     0.0170    -1.4230 h1         1 A1V       0.075700
     39 H7          -6.8720    -1.0510    -0.8780 h1         1 A1V       0.075700
     40 H8          -3.3020    -4.3490     1.1140 h4         1 A1V       0.153000
     41 H9           1.6810    -2.1580     1.7680 h4         1 A1V       0.188000
     42 H10          3.5310     3.0120    -0.8450 ha         1 A1V       0.121000
     43 H12          8.1860     1.0540     0.2410 h4         1 A1V       0.158000
     44 C02         -5.9200    -1.0200    -1.4220 c3         1 A1V       0.098500
@<TRIPOS>BOND
     1     1     2 1   
     2     1    15 1   
     3     1    16 2   
     4     2    18 ar  
     5     2    20 ar  
     6     3    18 ar  
     7     3    19 ar  
     8     3    26 1   
     9     4    19 ar  
    10     4    20 ar  
    11     4    34 1   
    12     5     6 2   
    13     5     7 1   
    14     5    22 1   
    15     6    23 1   
    16     6    35 1   
    17     7    24 1   
    18     7    25 1   
    19     8    36 1   
    20     8    37 1   
    21     8    44 1   
    22     9    10 2   
    23     9    13 1   
    24     9    44 1   
    25    10    11 1   
    26    11    12 2   
    27    11    14 1   
    28    12    13 1   
    29    12    40 1   
    30    14    15 2   
    31    14    17 1   
    32    16    17 1   
    33    16    41 1   
    34    19    42 1   
    35    20    21 1   
    36    21    22 2   
    37    21    23 1   
    38    26    27 2   
    39    26    30 1   
    40    27    28 1   
    41    28    29 2   
    42    28    31 1   
    43    29    30 1   
    44    29    43 1   
    45    31    32 1   
    46    31    33 1   
    47    38    44 1   
    48    39    44 1   
@<TRIPOS>SUBSTRUCTURE
     1 A1V         1 TEMP              0 ****  ****    0 ROOT
