@<TRIPOS>MOLECULE
A1W
   46    49     1     0     0
SMALL
No Charge or Current Charge


@<TRIPOS>ATOM
      1 C1           7.7770   -14.1350    18.5030 c3         1 A1W       0.055600
      2 C2           9.4530   -13.7150    22.3320 ce         1 A1W       0.391900
      3 C3           8.3020   -13.9940    23.3130 c5         1 A1W      -0.090700
      4 C11          8.5490   -14.9540    24.4870 ca         1 A1W      -0.076300
      5 C12          9.6500   -15.8400    24.5110 ca         1 A1W      -0.093000
      6 C13          9.8460   -16.7080    25.5980 ca         1 A1W      -0.109000
      7 C14          8.9480   -16.7000    26.6770 ca         1 A1W      -0.102000
      8 C15          7.8530   -15.8220    26.6670 ca         1 A1W      -0.109000
      9 C16          7.6570   -14.9540    25.5790 ca         1 A1W      -0.093000
     10 C17         10.8260   -13.2340    22.6930 ca         1 A1W      -0.122900
     11 C18         11.1200   -12.8190    24.0110 ca         1 A1W      -0.079500
     12 C19         12.4020   -12.3490    24.3440 ca         1 A1W      -0.117000
     13 C20         13.4040   -12.2760    23.3620 ca         1 A1W      -0.095000
     14 C21         13.1200   -12.6700    22.0450 ca         1 A1W      -0.117000
     15 C22         11.8390   -13.1410    21.7100 ca         1 A1W      -0.079500
     16 C            7.0390   -14.4280    19.8210 c          1 A1W       0.623100
     17 O            5.8700   -14.8060    19.8180 o          1 A1W      -0.556100
     18 N            7.7520   -14.2440    21.0380 n          1 A1W      -0.189800
     19 C4           7.1840   -14.5880    22.3520 c5         1 A1W       0.149000
     20 C5           7.1060   -16.1270    22.4500 ca         1 A1W      -0.089300
     21 C10          5.9860   -16.7120    23.0780 ca         1 A1W      -0.087000
     22 C9           5.8730   -18.1080    23.1970 ca         1 A1W      -0.109000
     23 C8           6.8800   -18.9420    22.6860 ca         1 A1W      -0.101000
     24 C7           7.9980   -18.3760    22.0540 ca         1 A1W      -0.109000
     25 C6           8.1110   -16.9810    21.9350 ca         1 A1W      -0.087000
     26 N1           9.0450   -13.8240    21.1130 n2         1 A1W      -0.427300
     27 H2           7.0330   -13.9050    17.7310 h1         1 A1W       0.091700
     28 H19          8.4340   -13.2690    18.6340 h1         1 A1W       0.091700
     29 H            7.9590   -13.0240    23.6920 hc         1 A1W       0.078700
     30 H9          10.3540   -15.8690    23.6830 ha         1 A1W       0.114000
     31 H10         10.6950   -17.3880    25.6030 ha         1 A1W       0.114000
     32 H11          9.1000   -17.3730    27.5180 ha         1 A1W       0.113000
     33 H12          7.1550   -15.8140    27.5010 ha         1 A1W       0.114000
     34 H13          6.8030   -14.2800    25.5820 ha         1 A1W       0.114000
     35 H14         10.3590   -12.8580    24.7860 ha         1 A1W       0.124000
     36 H15         12.6180   -12.0370    25.3630 ha         1 A1W       0.116500
     37 H16         14.3950   -11.9100    23.6210 ha         1 A1W       0.115000
     38 H17         13.8920   -12.6090    21.2820 ha         1 A1W       0.116500
     39 H18         11.6390   -13.4410    20.6830 ha         1 A1W       0.124000
     40 H1           6.2050   -14.1160    22.5130 h1         1 A1W       0.080700
     41 H8           5.1990   -16.0800    23.4830 ha         1 A1W       0.113500
     42 H7           5.0050   -18.5420    23.6880 ha         1 A1W       0.112500
     43 H6           6.7930   -20.0220    22.7790 ha         1 A1W       0.112000
     44 H5           8.7800   -19.0200    21.6580 ha         1 A1W       0.112500
     45 H4           8.9910   -16.5690    21.4480 ha         1 A1W       0.113500
     46 Cl1          8.7850   -15.5440    17.9150 cl         1 A1W      -0.252000
@<TRIPOS>BOND
     1     1    16 1   
     2     1    27 1   
     3     1    28 1   
     4     1    46 1   
     5     2     3 1   
     6     2    10 1   
     7     2    26 2   
     8     3     4 1   
     9     3    19 1   
    10     3    29 1   
    11     4     5 ar  
    12     4     9 ar  
    13     5     6 ar  
    14     5    30 1   
    15     6     7 ar  
    16     6    31 1   
    17     7     8 ar  
    18     7    32 1   
    19     8     9 ar  
    20     8    33 1   
    21     9    34 1   
    22    10    11 ar  
    23    10    15 ar  
    24    11    12 ar  
    25    11    35 1   
    26    12    13 ar  
    27    12    36 1   
    28    13    14 ar  
    29    13    37 1   
    30    14    15 ar  
    31    14    38 1   
    32    15    39 1   
    33    16    17 2   
    34    16    18 1   
    35    18    19 1   
    36    18    26 1   
    37    19    20 1   
    38    19    40 1   
    39    20    21 ar  
    40    20    25 ar  
    41    21    22 ar  
    42    21    41 1   
    43    22    23 ar  
    44    22    42 1   
    45    23    24 ar  
    46    23    43 1   
    47    24    25 ar  
    48    24    44 1   
    49    25    45 1   
@<TRIPOS>SUBSTRUCTURE
     1 A1W         1 TEMP              0 ****  ****    0 ROOT
