@<TRIPOS>MOLECULE
A1W
   46    49     1     0     0
SMALL
abcg2


@<TRIPOS>ATOM
      1 C1           8.1640   -14.2790    18.5710 c3         1 A1W       0.055600
      2 C2           9.4100   -13.6910    22.3370 ce         1 A1W       0.391900
      3 C3           8.2940   -14.0980    23.2710 c5         1 A1W      -0.090700
      4 C11          8.6950   -15.0340    24.3800 ca         1 A1W      -0.076300
      5 C12          9.6740   -16.0070    24.2010 ca         1 A1W      -0.093000
      6 C13          9.9960   -16.8800    25.2300 ca         1 A1W      -0.109000
      7 C14          9.3440   -16.7910    26.4540 ca         1 A1W      -0.102000
      8 C15          8.3700   -15.8200    26.6420 ca         1 A1W      -0.109000
      9 C16          8.0520   -14.9470    25.6110 ca         1 A1W      -0.093000
     10 C17         10.6970   -13.1410    22.7570 ca         1 A1W      -0.122900
     11 C18         10.8730   -12.6590    24.0550 ca         1 A1W      -0.079500
     12 C19         12.0900   -12.1210    24.4460 ca         1 A1W      -0.117000
     13 C20         13.1460   -12.0590    23.5480 ca         1 A1W      -0.095000
     14 C21         12.9790   -12.5360    22.2520 ca         1 A1W      -0.117000
     15 C22         11.7660   -13.0730    21.8580 ca         1 A1W      -0.079500
     16 C            7.2950   -14.5500    19.7810 c          1 A1W       0.623100
     17 O            6.1510   -14.9470    19.6800 o          1 A1W      -0.556100
     18 N            7.8700   -14.3390    20.9860 n          1 A1W      -0.189800
     19 C4           7.2430   -14.6710    22.2630 c5         1 A1W       0.149000
     20 C5           6.9600   -16.1440    22.4010 ca         1 A1W      -0.089300
     21 C10          5.8960   -16.5530    23.1970 ca         1 A1W      -0.087000
     22 C9           5.6370   -17.9020    23.3940 ca         1 A1W      -0.109000
     23 C8           6.4380   -18.8600    22.7880 ca         1 A1W      -0.101000
     24 C7           7.4980   -18.4580    21.9850 ca         1 A1W      -0.109000
     25 C6           7.7600   -17.1080    21.7970 ca         1 A1W      -0.087000
     26 N1           9.1230   -13.8300    21.1030 n2         1 A1W      -0.427300
     27 H2           7.5490   -14.3160    17.6770 h1         1 A1W       0.091700
     28 H19          8.6830   -13.3260    18.6260 h1         1 A1W       0.091700
     29 H            7.8790   -13.1930    23.7270 hc         1 A1W       0.078700
     30 H9          10.1930   -16.0920    23.2540 ha         1 A1W       0.114000
     31 H10         10.7590   -17.6320    25.0760 ha         1 A1W       0.114000
     32 H11          9.5970   -17.4720    27.2560 ha         1 A1W       0.113000
     33 H12          7.8590   -15.7390    27.5930 ha         1 A1W       0.114000
     34 H13          7.2880   -14.1920    25.7620 ha         1 A1W       0.114000
     35 H14         10.0590   -12.6960    24.7670 ha         1 A1W       0.124000
     36 H15         12.2110   -11.7480    25.4540 ha         1 A1W       0.116500
     37 H16         14.0970   -11.6420    23.8550 ha         1 A1W       0.115000
     38 H17         13.8000   -12.4940    21.5480 ha         1 A1W       0.116500
     39 H18         11.6460   -13.4540    20.8520 ha         1 A1W       0.124000
     40 H1           6.3100   -14.1160    22.3650 h1         1 A1W       0.080700
     41 H8           5.2660   -15.8100    23.6710 ha         1 A1W       0.113500
     42 H7           4.8040   -18.2040    24.0170 ha         1 A1W       0.112500
     43 H6           6.2350   -19.9130    22.9350 ha         1 A1W       0.112000
     44 H5           8.1270   -19.1970    21.5060 ha         1 A1W       0.112500
     45 H4           8.5970   -16.8160    21.1730 ha         1 A1W       0.113500
     46 CL1          9.4030   -15.5690    18.4350 cl         1 A1W      -0.252000
@<TRIPOS>BOND
     1     1    16 1   
     2     1    27 1   
     3     1    28 1   
     4     1    46 1   
     5     2     3 1   
     6     2    10 1   
     7     2    26 2   
     8     3     4 1   
     9     3    19 1   
    10     3    29 1   
    11     4     5 ar  
    12     4     9 ar  
    13     5     6 ar  
    14     5    30 1   
    15     6     7 ar  
    16     6    31 1   
    17     7     8 ar  
    18     7    32 1   
    19     8     9 ar  
    20     8    33 1   
    21     9    34 1   
    22    10    11 ar  
    23    10    15 ar  
    24    11    12 ar  
    25    11    35 1   
    26    12    13 ar  
    27    12    36 1   
    28    13    14 ar  
    29    13    37 1   
    30    14    15 ar  
    31    14    38 1   
    32    15    39 1   
    33    16    17 2   
    34    16    18 1   
    35    18    19 1   
    36    18    26 1   
    37    19    20 1   
    38    19    40 1   
    39    20    21 ar  
    40    20    25 ar  
    41    21    22 ar  
    42    21    41 1   
    43    22    23 ar  
    44    22    42 1   
    45    23    24 ar  
    46    23    43 1   
    47    24    25 ar  
    48    24    44 1   
    49    25    45 1   
@<TRIPOS>SUBSTRUCTURE
     1 A1W         1 TEMP              0 ****  ****    0 ROOT
