@<TRIPOS>MOLECULE
A1X
   36    35     1     0     0
SMALL
abcg2


@<TRIPOS>ATOM
      1 OAE          3.3170    -1.1190     1.5170 o          1 A1X      -0.488000
      2 CAD          2.8200    -0.6660     0.5170 c          1 A1X       0.556100
      3 OAC          3.4150     0.1900    -0.2940 os         1 A1X      -0.448100
      4 CAB          4.7330     0.6530     0.0490 c3         1 A1X       0.166600
      5 CAA          5.1690     1.6270    -1.0170 c3         1 A1X      -0.098100
      6 CAF          1.4100    -0.9950     0.0470 c3         1 A1X       0.129300
      7 OAJ          0.9190    -2.1270     0.7010 oh         1 A1X      -0.621000
      8 CAG          0.5180     0.2300     0.2410 c3         1 A1X      -0.177400
      9 CAH         -0.8390     0.0360    -0.4080 c          1 A1X       0.633100
     10 OAI         -1.0230    -0.8060    -1.2750 o          1 A1X      -0.592100
     11 NAK         -1.8310     0.8650    -0.0140 n          1 A1X      -0.312200
     12 NAL         -1.5640     1.8450     0.9330 n8         1 A1X      -0.748200
     13 CAN         -3.1470     0.7980    -0.6340 c3         1 A1X       0.089000
     14 CAO         -4.0920    -0.2380    -0.0240 c3         1 A1X      -0.083700
     15 CAP         -4.2450    -0.0730     1.4830 c3         1 A1X      -0.088600
     16 CAM         -5.4440    -0.1460    -0.7240 c3         1 A1X      -0.088600
     17 HAB          4.7070     1.1310     1.0300 h1         1 A1X       0.049200
     18 HABA         5.4150    -0.1970     0.1060 h1         1 A1X       0.049200
     19 HAA          4.4940     2.4790    -1.0830 hc         1 A1X       0.047367
     20 HAAA         6.1610     2.0050    -0.7710 hc         1 A1X       0.047367
     21 HAAB         5.2260     1.1510    -1.9960 hc         1 A1X       0.047367
     22 HAF          1.4580    -1.2420    -1.0170 h1         1 A1X       0.119700
     23 HOAJ         0.9550    -1.9780     1.6520 ho         1 A1X       0.452000
     24 HAG          0.4150     0.4590     1.3020 hc         1 A1X       0.081700
     25 HAGA         0.9770     1.1150    -0.2070 hc         1 A1X       0.081700
     26 HNAL        -1.7200     2.7590     0.5240 hn         1 A1X       0.406000
     27 HNAA        -2.2010     1.7450     1.7130 hn         1 A1X       0.406000
     28 HAN         -3.5870     1.7950    -0.5470 h1         1 A1X       0.052700
     29 HANA        -3.0280     0.5980    -1.7000 h1         1 A1X       0.052700
     30 HAO         -3.6740    -1.2310    -0.2210 hc         1 A1X       0.073700
     31 HAP         -4.6190     0.9220     1.7380 hc         1 A1X       0.034200
     32 HAPA        -4.9580    -0.7990     1.8790 hc         1 A1X       0.034200
     33 HAPB        -3.3040    -0.2320     2.0130 hc         1 A1X       0.034200
     34 HAM         -5.3500    -0.2940    -1.8010 hc         1 A1X       0.034200
     35 HAMA        -6.1330    -0.9020    -0.3450 hc         1 A1X       0.034200
     36 HAMB        -5.9040     0.8310    -0.5600 hc         1 A1X       0.034200
@<TRIPOS>BOND
     1     1     2 2   
     2     2     3 1   
     3     2     6 1   
     4     3     4 1   
     5     4     5 1   
     6     4    17 1   
     7     4    18 1   
     8     5    19 1   
     9     5    20 1   
    10     5    21 1   
    11     6     7 1   
    12     6     8 1   
    13     6    22 1   
    14     7    23 1   
    15     8     9 1   
    16     8    24 1   
    17     8    25 1   
    18     9    10 2   
    19     9    11 1   
    20    11    12 1   
    21    11    13 1   
    22    12    26 1   
    23    12    27 1   
    24    13    14 1   
    25    13    28 1   
    26    13    29 1   
    27    14    15 1   
    28    14    16 1   
    29    14    30 1   
    30    15    31 1   
    31    15    32 1   
    32    15    33 1   
    33    16    34 1   
    34    16    35 1   
    35    16    36 1   
@<TRIPOS>SUBSTRUCTURE
     1 A1X         1 TEMP              0 ****  ****    0 ROOT
