@<TRIPOS>MOLECULE
A1X
   36    35     1     0     0
SMALL
No Charge or Current Charge


@<TRIPOS>ATOM
      1 OAE          3.6030    -1.2260     1.4820 o          1 A1X      -0.488000
      2 CAD          2.9720    -0.6980     0.5720 c          1 A1X       0.556100
      3 OAC          3.4970     0.2270    -0.2950 os         1 A1X      -0.448100
      4 CAB          4.8560     0.6500    -0.0920 c3         1 A1X       0.166600
      5 CAA          5.1830     1.6840    -1.1810 c3         1 A1X      -0.098100
      6 CAF          1.5060    -1.0780     0.2090 c3         1 A1X       0.129300
      7 OAJ          1.0460    -2.2320     0.9560 oh         1 A1X      -0.621000
      8 CAG          0.5250     0.0950     0.4530 c3         1 A1X      -0.177400
      9 CAH         -0.8180     0.0010    -0.2870 c          1 A1X       0.633100
     10 OAI         -0.9810    -0.7850    -1.2150 o          1 A1X      -0.592100
     11 NAK         -1.8620     0.8930     0.1280 n          1 A1X      -0.312200
     12 NAL         -1.7100     1.9070     1.1490 n8         1 A1X      -0.748200
     13 CAN         -3.1650     0.8680    -0.5930 c3         1 A1X       0.089000
     14 CAO         -4.1920    -0.1520    -0.0310 c3         1 A1X      -0.083700
     15 CAP         -4.5890     0.1290     1.4380 c3         1 A1X      -0.088600
     16 CAM         -5.4430    -0.2270    -0.9360 c3         1 A1X      -0.088600
     17 HAB          4.9800     1.1090     0.8980 h1         1 A1X       0.049200
     18 HABA         5.5480    -0.1990    -0.1730 h1         1 A1X       0.049200
     19 HAA          4.5100     2.5470    -1.1080 hc         1 A1X       0.047367
     20 HAAA         6.2130     2.0400    -1.0680 hc         1 A1X       0.047367
     21 HAAB         5.0790     1.2400    -2.1780 hc         1 A1X       0.047367
     22 HAF          1.5290    -1.2990    -0.8680 h1         1 A1X       0.119700
     23 HOAJ         1.7740    -2.4770     1.5740 ho         1 A1X       0.452000
     24 HAG          0.3450     0.2630     1.5200 hc         1 A1X       0.081700
     25 HAGA         0.9660     1.0510     0.1510 hc         1 A1X       0.081700
     26 HNAL        -1.8500     2.8480     0.7530 hn         1 A1X       0.406000
     27 HNAA        -2.4210     1.7920     1.8830 hn         1 A1X       0.406000
     28 HAN         -3.6100     1.8710    -0.5590 h1         1 A1X       0.052700
     29 HANA        -2.9820     0.6470    -1.6530 h1         1 A1X       0.052700
     30 HAO         -3.7180    -1.1420    -0.0580 hc         1 A1X       0.073700
     31 HAP         -5.0130     1.1350     1.5430 hc         1 A1X       0.034200
     32 HAPA        -5.3380    -0.5950     1.7810 hc         1 A1X       0.034200
     33 HAPB        -3.7210     0.0450     2.1030 hc         1 A1X       0.034200
     34 HAM         -5.1630    -0.4840    -1.9650 hc         1 A1X       0.034200
     35 HAMA        -6.1390    -0.9930    -0.5750 hc         1 A1X       0.034200
     36 HAMB        -5.9690     0.7350    -0.9540 hc         1 A1X       0.034200
@<TRIPOS>BOND
     1     1     2 2   
     2     2     3 1   
     3     2     6 1   
     4     3     4 1   
     5     4     5 1   
     6     4    17 1   
     7     4    18 1   
     8     5    19 1   
     9     5    20 1   
    10     5    21 1   
    11     6     7 1   
    12     6     8 1   
    13     6    22 1   
    14     7    23 1   
    15     8     9 1   
    16     8    24 1   
    17     8    25 1   
    18     9    10 2   
    19     9    11 1   
    20    11    12 1   
    21    11    13 1   
    22    12    26 1   
    23    12    27 1   
    24    13    14 1   
    25    13    28 1   
    26    13    29 1   
    27    14    15 1   
    28    14    16 1   
    29    14    30 1   
    30    15    31 1   
    31    15    32 1   
    32    15    33 1   
    33    16    34 1   
    34    16    35 1   
    35    16    36 1   
@<TRIPOS>SUBSTRUCTURE
     1 A1X         1 TEMP              0 ****  ****    0 ROOT
