@<TRIPOS>MOLECULE
A1Y
   31    32     1     0     0
SMALL
bcc


@<TRIPOS>ATOM
      1 N3           1.1430     0.1940     0.0610 nh         1 A1Y      -0.768300
      2 C4          -1.9990     1.7740     0.4450 ca         1 A1Y       0.488600
      3 N2          -0.2880    -3.1140    -0.5450 n1         1 A1Y      -0.383800
      4 C7          -0.6330    -2.0180    -0.4310 cg         1 A1Y       0.256800
      5 C6          -1.0990    -0.6890    -0.2660 ca         1 A1Y      -0.198300
      6 C9           3.1550    -0.9450    -0.6870 c6         1 A1Y       0.122400
      7 C8           1.8200    -0.3610    -1.1060 c6         1 A1Y       0.172300
      8 C2          -2.4770    -0.4500    -0.3080 ca         1 A1Y       0.033700
      9 C3          -2.9200     0.8160     0.0380 ca         1 A1Y      -0.297300
     10 N1          -0.6880     1.5500     0.4360 nb         1 A1Y      -0.757000
     11 C5          -0.2170     0.3700     0.0630 ca         1 A1Y       0.716200
     12 O1           3.9590     0.0210    -0.0500 os         1 A1Y      -0.400600
     13 C10          3.3050     0.5610     1.0770 c6         1 A1Y       0.122400
     14 C11          1.9700     1.1910     0.7220 c6         1 A1Y       0.172300
     15 H7           2.9820    -1.8060    -0.0260 h1         1 A1Y       0.055950
     16 H8           3.6960    -1.2950    -1.5670 h1         1 A1Y       0.055950
     17 H5           1.2300    -1.1370    -1.5860 h1         1 A1Y       0.057450
     18 H6           1.9780     0.4300    -1.8510 h1         1 A1Y       0.057450
     19 H3          -3.4260    -2.3330     0.0760 hc         1 A1Y       0.056033
     20 H2          -4.4540    -1.1530    -0.7340 hc         1 A1Y       0.056033
     21 H1          -3.1830    -1.9890    -1.6290 hc         1 A1Y       0.056033
     22 H4          -3.9770     1.0460     0.0250 ha         1 A1Y       0.146000
     23 H10          3.1420    -0.2180     1.8350 h1         1 A1Y       0.055950
     24 H9           3.9640     1.3170     1.5060 h1         1 A1Y       0.055950
     25 H11          2.1180     2.0730     0.0860 h1         1 A1Y       0.057450
     26 H12          1.4870     1.5250     1.6390 h1         1 A1Y       0.057450
     27 H14         -2.2210     3.2400     1.9790 hc         1 A1Y       0.055367
     28 H13         -1.9100     3.9120     0.3870 hc         1 A1Y       0.055367
     29 H15         -3.5120     3.2680     0.7760 hc         1 A1Y       0.055367
     30 C12         -2.4430     3.1220     0.9160 c3         1 A1Y      -0.150400
     31 C1          -3.4390    -1.5370    -0.6700 c3         1 A1Y      -0.061800
@<TRIPOS>BOND
     1     1     7 1   
     2     1    11 1   
     3     1    14 1   
     4     2     9 ar  
     5     2    10 ar  
     6     2    30 1   
     7     3     4 3   
     8     4     5 1   
     9     5     8 ar  
    10     5    11 ar  
    11     6     7 1   
    12     6    12 1   
    13     6    15 1   
    14     6    16 1   
    15     7    17 1   
    16     7    18 1   
    17     8     9 ar  
    18     8    31 1   
    19     9    22 1   
    20    10    11 ar  
    21    12    13 1   
    22    13    14 1   
    23    13    23 1   
    24    13    24 1   
    25    14    25 1   
    26    14    26 1   
    27    19    31 1   
    28    20    31 1   
    29    21    31 1   
    30    27    30 1   
    31    28    30 1   
    32    29    30 1   
@<TRIPOS>SUBSTRUCTURE
     1 A1Y         1 TEMP              0 ****  ****    0 ROOT
