@<TRIPOS>MOLECULE
A1Y
   31    32     1     0     0
SMALL
No Charge or Current Charge


@<TRIPOS>ATOM
      1 N3           1.1310     0.1610     0.0780 nh         1 A1Y      -0.768300
      2 C4          -2.0040     1.8140     0.2410 ca         1 A1Y       0.423300
      3 N2          -0.2460    -3.1960    -0.4360 n1         1 A1Y      -0.473000
      4 C7          -0.6440    -2.1060    -0.2990 cg         1 A1Y       0.346000
      5 C6          -1.1530    -0.7750    -0.1380 ca         1 A1Y      -0.133000
      6 C9           3.2830    -0.6450    -0.9800 c6         1 A1Y       0.145600
      7 C8           1.8550    -0.0670    -1.2130 c6         1 A1Y       0.172300
      8 C2          -2.5410    -0.5200    -0.1460 ca         1 A1Y       0.033700
      9 C3          -2.9590     0.8060     0.0470 ca         1 A1Y      -0.214000
     10 N1          -0.6810     1.5710     0.2520 nb         1 A1Y      -0.757000
     11 C5          -0.2690     0.3060     0.0600 ca         1 A1Y       0.650900
     12 O1           4.0240     0.1830    -0.0530 os         1 A1Y      -0.447000
     13 C10          3.3770     0.2900     1.2380 c6         1 A1Y       0.145600
     14 C11          1.9520     0.9010     1.0910 c6         1 A1Y       0.172300
     15 H7           3.2110    -1.6660    -0.5770 h1         1 A1Y       0.055950
     16 H8           3.8260    -0.6930    -1.9340 h1         1 A1Y       0.055950
     17 H5           1.2980    -0.7630    -1.8570 h1         1 A1Y       0.057450
     18 H6           1.9440     0.8810    -1.7630 h1         1 A1Y       0.057450
     19 H3          -3.5100    -2.3780     0.4440 hc         1 A1Y       0.056033
     20 H2          -4.5990    -1.2270    -0.3380 hc         1 A1Y       0.056033
     21 H1          -3.4330    -2.1290    -1.3110 hc         1 A1Y       0.056033
     22 H4          -4.0160     1.0580     0.0540 ha         1 A1Y       0.128000
     23 H10          3.3090    -0.7090     1.6920 h1         1 A1Y       0.055950
     24 H9           3.9880     0.9220     1.8970 h1         1 A1Y       0.055950
     25 H11          2.0500     1.9580     0.8010 h1         1 A1Y       0.057450
     26 H12          1.4590     0.8740     2.0740 h1         1 A1Y       0.057450
     27 H14         -2.5070     3.4700     1.5350 hc         1 A1Y       0.055367
     28 H13         -1.6920     3.9530     0.0360 hc         1 A1Y       0.055367
     29 H15         -3.3910     3.4620    -0.0010 hc         1 A1Y       0.055367
     30 C12         -2.4200     3.2540     0.4640 c3         1 A1Y      -0.150400
     31 C1          -3.5770    -1.6240    -0.3480 c3         1 A1Y      -0.061800
@<TRIPOS>BOND
     1     1     7 1   
     2     1    11 1   
     3     1    14 1   
     4     2     9 ar  
     5     2    10 ar  
     6     2    30 1   
     7     3     4 3   
     8     4     5 1   
     9     5     8 ar  
    10     5    11 ar  
    11     6     7 1   
    12     6    12 1   
    13     6    15 1   
    14     6    16 1   
    15     7    17 1   
    16     7    18 1   
    17     8     9 ar  
    18     8    31 1   
    19     9    22 1   
    20    10    11 ar  
    21    12    13 1   
    22    13    14 1   
    23    13    23 1   
    24    13    24 1   
    25    14    25 1   
    26    14    26 1   
    27    19    31 1   
    28    20    31 1   
    29    21    31 1   
    30    27    30 1   
    31    28    30 1   
    32    29    30 1   
@<TRIPOS>SUBSTRUCTURE
     1 A1Y         1 TEMP              0 ****  ****    0 ROOT
