@<TRIPOS>MOLECULE
A1Z
   31    32     1     0     0
SMALL
No Charge or Current Charge


@<TRIPOS>ATOM
      1 O01          1.2300    -3.3070    -0.6370 oh         1 A1Z      -0.564100
      2 C02          0.6690    -2.0820    -0.3840 ca         1 A1Z       0.163100
      3 C03          1.4720    -0.9270    -0.1810 ca         1 A1Z       0.199500
      4 C04          2.9930    -1.0570    -0.2430 c          1 A1Z       0.483600
      5 N05          3.7000     0.1090    -0.0360 ns         1 A1Z      -0.393900
      6 C06          5.1750     0.2340    -0.0590 c3         1 A1Z      -0.069000
      7 C07          5.6460     1.6340     0.4130 c          1 A1Z       0.715000
      8 O08          6.7210     1.7130     0.9910 o          1 A1Z      -0.721000
      9 O09          4.9060     2.5920     0.2300 o          1 A1Z      -0.721000
     10 O10          3.5600    -2.1270    -0.4630 o          1 A1Z      -0.702100
     11 N11          0.9210     0.2990     0.0690 nb         1 A1Z      -0.611000
     12 C12         -0.4280     0.3970     0.1190 ca         1 A1Z       0.298900
     13 C13         -1.3140    -0.6980    -0.0700 cp         1 A1Z      -0.057000
     14 C21         -0.7270    -1.9630    -0.3270 ca         1 A1Z      -0.142000
     15 C14         -2.8000    -0.5220     0.0010 cp         1 A1Z      -0.010000
     16 C15         -3.4170     0.6850    -0.4180 ca         1 A1Z      -0.092000
     17 C16         -4.8110     0.8470    -0.3510 ca         1 A1Z       0.118000
     18 Cl          -5.5440     2.3550    -0.8840 cl         1 A1Z      -0.213000
     19 C18         -5.6210    -0.1890     0.1360 ca         1 A1Z      -0.110000
     20 C19         -5.0340    -1.3930     0.5580 ca         1 A1Z      -0.107000
     21 C20         -3.6390    -1.5570     0.4900 ca         1 A1Z      -0.099000
     22 H011         2.2190    -3.1600    -0.6320 ho         1 A1Z       0.535000
     23 H051         3.1420     0.9440     0.1280 hn         1 A1Z       0.369500
     24 H061         5.6120    -0.5280     0.5980 h1         1 A1Z       0.042200
     25 H062         5.5350     0.0720    -1.0830 h1         1 A1Z       0.042200
     26 H121        -0.8180     1.3920     0.3320 h4         1 A1Z       0.023100
     27 H211        -1.3460    -2.8400    -0.4950 ha         1 A1Z       0.125000
     28 H151        -2.8160     1.4990    -0.8120 ha         1 A1Z       0.138000
     29 H181        -6.6990    -0.0600     0.1870 ha         1 A1Z       0.123000
     30 H191        -5.6580    -2.1980     0.9390 ha         1 A1Z       0.113000
     31 H201        -3.2050    -2.4920     0.8350 ha         1 A1Z       0.123000
@<TRIPOS>BOND
     1     1     2 1   
     2     1    22 1   
     3     2     3 ar  
     4     2    14 ar  
     5     3     4 1   
     6     3    11 ar  
     7     4     5 1   
     8     4    10 2   
     9     5     6 1   
    10     5    23 1   
    11     6     7 1   
    12     6    24 1   
    13     6    25 1   
    14     7     8 1   
    15     7     9 1   
    16    11    12 ar  
    17    12    13 ar  
    18    12    26 1   
    19    13    14 ar  
    20    13    15 1   
    21    14    27 1   
    22    15    16 ar  
    23    15    21 ar  
    24    16    17 ar  
    25    16    28 1   
    26    17    18 1   
    27    17    19 ar  
    28    19    20 ar  
    29    19    29 1   
    30    20    21 ar  
    31    20    30 1   
    32    21    31 1   
@<TRIPOS>SUBSTRUCTURE
     1 A1Z         1 TEMP              0 ****  ****    0 ROOT
