@<TRIPOS>MOLECULE
A1Z
   31    32     1     0     0
SMALL
abcg2


@<TRIPOS>ATOM
      1 O01          1.2030    -3.2570    -0.7040 oh         1 A1Z      -0.564100
      2 C02          0.6730    -2.0710    -0.4210 ca         1 A1Z       0.163100
      3 C03          1.4500    -0.9280    -0.1820 ca         1 A1Z       0.199500
      4 C04          2.9340    -1.0220    -0.2430 c          1 A1Z       0.483600
      5 N05          3.6030     0.0880     0.0040 ns         1 A1Z      -0.393900
      6 C06          5.0380     0.2020     0.0050 c3         1 A1Z      -0.069000
      7 C07          5.4660     1.6330     0.3950 c          1 A1Z       0.715000
      8 O08          6.6920     1.8290     0.4140 o          1 A1Z      -0.721000
      9 O09          4.5570     2.4440     0.6510 o          1 A1Z      -0.721000
     10 O10          3.4760    -2.1080    -0.5150 o          1 A1Z      -0.702100
     11 N11          0.9060     0.2500     0.1040 nb         1 A1Z      -0.611000
     12 C12         -0.4010     0.3720     0.1600 ca         1 A1Z       0.298900
     13 C13         -1.2730    -0.7030    -0.0730 cp         1 A1Z      -0.057000
     14 C21         -0.7140    -1.9350    -0.3650 ca         1 A1Z      -0.142000
     15 C14         -2.7330    -0.5210    -0.0000 cp         1 A1Z      -0.010000
     16 C15         -3.3160     0.6600    -0.4610 ca         1 A1Z      -0.092000
     17 C16         -4.6890     0.8180    -0.3900 ca         1 A1Z       0.118000
     18 CL          -5.3980     2.2860    -0.9790 cl         1 A1Z      -0.213000
     19 C18         -5.5090    -0.1710     0.1310 ca         1 A1Z      -0.110000
     20 C19         -4.9240    -1.3430     0.5890 ca         1 A1Z      -0.107000
     21 C20         -3.5510    -1.5200     0.5260 ca         1 A1Z      -0.099000
     22 H011         2.1870    -3.1280    -0.6990 ho         1 A1Z       0.535000
     23 H051         3.0930     0.9340     0.2280 hn         1 A1Z       0.369500
     24 H061         5.4810    -0.5080     0.7100 h1         1 A1Z       0.042200
     25 H062         5.4480    -0.0400    -0.9800 h1         1 A1Z       0.042200
     26 H121        -0.7890     1.3500     0.4190 h4         1 A1Z       0.023100
     27 H211        -1.3380    -2.7960    -0.5710 ha         1 A1Z       0.125000
     28 H151        -2.7050     1.4410    -0.8950 ha         1 A1Z       0.138000
     29 H181        -6.5800    -0.0320     0.1800 ha         1 A1Z       0.123000
     30 H191        -5.5490    -2.1230     1.0040 ha         1 A1Z       0.113000
     31 H201        -3.1140    -2.4330     0.9070 ha         1 A1Z       0.123000
@<TRIPOS>BOND
     1     1     2 1   
     2     1    22 1   
     3     2     3 ar  
     4     2    14 ar  
     5     3     4 1   
     6     3    11 ar  
     7     4     5 1   
     8     4    10 2   
     9     5     6 1   
    10     5    23 1   
    11     6     7 1   
    12     6    24 1   
    13     6    25 1   
    14     7     8 1   
    15     7     9 1   
    16    11    12 ar  
    17    12    13 ar  
    18    12    26 1   
    19    13    14 ar  
    20    13    15 1   
    21    14    27 1   
    22    15    16 ar  
    23    15    21 ar  
    24    16    17 ar  
    25    16    28 1   
    26    17    18 1   
    27    17    19 ar  
    28    19    20 ar  
    29    19    29 1   
    30    20    21 ar  
    31    20    30 1   
    32    21    31 1   
@<TRIPOS>SUBSTRUCTURE
     1 A1Z         1 TEMP              0 ****  ****    0 ROOT
