@<TRIPOS>MOLECULE
A20
   16    15     1     0     0
SMALL
No Charge or Current Charge


@<TRIPOS>ATOM
      1 OAD          1.3710     0.5780     1.3950 o          1 A20      -0.698533
      2 SAH          1.3620     0.0050     0.0410 s6         1 A20       1.322600
      3 OAB          1.3540     0.9980    -1.0440 o          1 A20      -0.698533
      4 OAC          2.3040    -1.1050    -0.1570 o          1 A20      -0.698533
      5 CAG         -0.2610    -0.7920    -0.0850 c3         1 A20      -0.357400
      6 CAF         -1.4540     0.1820     0.0900 c3         1 A20      -0.033400
      7 CAE         -2.8210    -0.5280    -0.0220 c3         1 A20       0.144800
      8 NAA         -3.9470     0.4100     0.1420 n8         1 A20      -0.997200
      9 H1          -0.2980    -1.2660    -1.0720 h1         1 A20       0.061200
     10 H2          -0.2860    -1.5680     0.6880 h1         1 A20       0.061200
     11 H3          -1.3870     0.6730     1.0690 hc         1 A20       0.054200
     12 H4          -1.3970     0.9720    -0.6700 hc         1 A20       0.054200
     13 H5          -2.9090    -1.0080    -1.0060 h1         1 A20       0.017200
     14 H6          -2.8990    -1.3040     0.7520 h1         1 A20       0.017200
     15 H7          -3.9310     1.0870    -0.6300 hn         1 A20       0.376000
     16 H8          -4.8280    -0.0990     0.0010 hn         1 A20       0.376000
@<TRIPOS>BOND
     1     1     2 1   
     2     2     3 1   
     3     2     4 1   
     4     2     5 1   
     5     5     6 1   
     6     5     9 1   
     7     5    10 1   
     8     6     7 1   
     9     6    11 1   
    10     6    12 1   
    11     7     8 1   
    12     7    13 1   
    13     7    14 1   
    14     8    15 1   
    15     8    16 1   
@<TRIPOS>SUBSTRUCTURE
     1 A20         1 TEMP              0 ****  ****    0 ROOT
