@<TRIPOS>MOLECULE
A20
   16    15     1     0     0
SMALL
abcg2


@<TRIPOS>ATOM
      1 OAD          1.3630     0.5550     1.4170 o          1 A20      -0.698533
      2 SAH          1.3090    -0.0010     0.0490 s6         1 A20       1.322600
      3 OAB          1.3470     1.0410    -0.9980 o          1 A20      -0.698533
      4 OAC          2.2940    -1.0800    -0.1740 o          1 A20      -0.698533
      5 CAG         -0.3030    -0.7880    -0.0980 c3         1 A20      -0.357400
      6 CAF         -1.4600     0.1800     0.0780 c3         1 A20      -0.033400
      7 CAE         -2.8050    -0.5240    -0.0340 c3         1 A20       0.144800
      8 NAA         -3.8960     0.4280     0.1200 n8         1 A20      -0.997200
      9 H1          -0.3370    -1.2630    -1.0820 h1         1 A20       0.061200
     10 H2          -0.3390    -1.5830     0.6510 h1         1 A20       0.061200
     11 H3          -1.3940     0.6700     1.0520 hc         1 A20       0.054200
     12 H4          -1.3970     0.9650    -0.6810 hc         1 A20       0.054200
     13 H5          -2.8380    -1.0810    -0.9820 h1         1 A20       0.017200
     14 H6          -2.8870    -1.2700     0.7610 h1         1 A20       0.017200
     15 H7          -3.9060     1.0520    -0.6780 hn         1 A20       0.376000
     16 H8          -4.7790    -0.0650     0.0890 hn         1 A20       0.376000
@<TRIPOS>BOND
     1     1     2 1   
     2     2     3 1   
     3     2     4 1   
     4     2     5 1   
     5     5     6 1   
     6     5     9 1   
     7     5    10 1   
     8     6     7 1   
     9     6    11 1   
    10     6    12 1   
    11     7     8 1   
    12     7    13 1   
    13     7    14 1   
    14     8    15 1   
    15     8    16 1   
@<TRIPOS>SUBSTRUCTURE
     1 A20         1 TEMP              0 ****  ****    0 ROOT
