@<TRIPOS>MOLECULE
A21
   33    34     1     0     0
SMALL
No Charge or Current Charge


@<TRIPOS>ATOM
      1 F3          -0.6180    -1.4000     0.0270 f          1 A21      -0.101333
      2 C2          -1.9290    -1.1030    -0.1280 c3         1 A21       0.330000
      3 F4          -2.3910    -1.8710    -1.1410 f          1 A21      -0.101333
      4 F1          -2.5590    -1.5100     0.9980 f          1 A21      -0.101333
      5 C8          -2.1650     0.4130    -0.4010 c5         1 A21      -0.141000
      6 C13         -1.3610     0.8250    -1.6660 c          1 A21       0.724500
      7 O2          -1.7580     0.7900    -2.8200 o          1 A21      -0.483100
      8 N2          -0.1310     1.3440    -1.2850 ne         1 A21      -0.720100
      9 C4          -3.6790     0.7430    -0.5430 c3         1 A21      -0.068100
     10 S1          -1.4470     1.4430     0.9710 ss         1 A21      -0.310200
     11 C11         -0.0360     1.6860    -0.0570 c2         1 A21       0.743100
     12 N3           1.1140     2.1820     0.4790 nu         1 A21      -0.855400
     13 C1           2.4420     1.7380     0.0520 c3         1 A21       0.290800
     14 C3           3.5160     2.5540     0.7920 c3         1 A21      -0.109100
     15 C6           2.5870     0.2350     0.3000 ca         1 A21      -0.138300
     16 C18          2.8720    -0.6500    -0.7640 ca         1 A21       0.191000
     17 F2           3.0490    -0.1820    -2.0200 f          1 A21      -0.179000
     18 C22          2.4140    -0.2990     1.5980 ca         1 A21      -0.073000
     19 C21          2.5230    -1.6820     1.8220 ca         1 A21      -0.122000
     20 C9           2.8060    -2.5510     0.7550 ca         1 A21      -0.076000
     21 C19          2.9810    -2.0310    -0.5380 ca         1 A21      -0.147000
     22 H4          -4.2290     0.5090     0.3770 hc         1 A21       0.064700
     23 H4A         -3.8320     1.8090    -0.7530 hc         1 A21       0.064700
     24 H4B         -4.1430     0.1780    -1.3610 hc         1 A21       0.064700
     25 H1           2.5590     1.9470    -1.0220 h1         1 A21       0.097700
     26 H3           4.5160     2.2390     0.4720 hc         1 A21       0.051700
     27 H3A          3.4100     3.6220     0.5680 hc         1 A21       0.051700
     28 H3B          3.4460     2.4190     1.8770 hc         1 A21       0.051700
     29 H22          2.1890     0.3570     2.4360 ha         1 A21       0.111000
     30 H21          2.3860    -2.0820     2.8240 ha         1 A21       0.121000
     31 H9           2.8890    -3.6220     0.9300 ha         1 A21       0.120000
     32 H19          3.2010    -2.6980    -1.3680 ha         1 A21       0.135000
     33 H12          1.0220     2.4630     1.4500 hn         1 A21       0.513000
@<TRIPOS>BOND
     1     1     2 1   
     2     2     3 1   
     3     2     4 1   
     4     2     5 1   
     5     5     6 1   
     6     5     9 1   
     7     5    10 1   
     8     6     7 2   
     9     6     8 1   
    10     8    11 2   
    11     9    22 1   
    12     9    23 1   
    13     9    24 1   
    14    10    11 1   
    15    11    12 1   
    16    12    13 1   
    17    12    33 1   
    18    13    14 1   
    19    13    15 1   
    20    13    25 1   
    21    14    26 1   
    22    14    27 1   
    23    14    28 1   
    24    15    16 ar  
    25    15    18 ar  
    26    16    17 1   
    27    16    21 ar  
    28    18    19 ar  
    29    18    29 1   
    30    19    20 ar  
    31    19    30 1   
    32    20    21 ar  
    33    20    31 1   
    34    21    32 1   
@<TRIPOS>SUBSTRUCTURE
     1 A21         1 TEMP              0 ****  ****    0 ROOT
