@<TRIPOS>MOLECULE
A21
   33    34     1     0     0
SMALL
abcg2


@<TRIPOS>ATOM
      1 F3          -2.0870    -1.5590     0.8570 f          1 A21      -0.101333
      2 C2          -3.0690    -0.7790     0.3930 c3         1 A21       0.330000
      3 F4          -3.7880    -1.5080    -0.4590 f          1 A21      -0.101333
      4 F1          -3.8630    -0.4800     1.4260 f          1 A21      -0.101333
      5 C8          -2.5100     0.4810    -0.2590 c5         1 A21      -0.141000
      6 C13         -1.3880     0.0810    -1.2620 c          1 A21       0.724500
      7 O2          -1.6620    -0.5540    -2.2530 o          1 A21      -0.483100
      8 N2          -0.1490     0.5100    -0.9240 ne         1 A21      -0.720100
      9 C4          -3.5920     1.2960    -0.9570 c3         1 A21      -0.068100
     10 S1          -1.6670     1.4450     1.0240 ss         1 A21      -0.310200
     11 C11         -0.1380     1.1910     0.1850 c2         1 A21       0.743100
     12 N3           0.9560     1.7070     0.7040 nu         1 A21      -0.855400
     13 C1           2.2660     1.5540     0.0840 c3         1 A21       0.290800
     14 C3           3.2270     2.5480     0.7240 c3         1 A21      -0.109100
     15 C6           2.7740     0.1350     0.2200 ca         1 A21      -0.138300
     16 C18          3.5760    -0.4280    -0.7600 ca         1 A21       0.191000
     17 F2           3.8660     0.3020    -1.8530 f          1 A21      -0.179000
     18 C22          2.5040    -0.6440     1.3410 ca         1 A21      -0.073000
     19 C21          3.0100    -1.9300     1.4640 ca         1 A21      -0.122000
     20 C9           3.8070    -2.4610     0.4580 ca         1 A21      -0.076000
     21 C19          4.0960    -1.7040    -0.6680 ca         1 A21      -0.147000
     22 H4          -4.3860     1.5860    -0.2700 hc         1 A21       0.064700
     23 H4A         -3.1570     2.2050    -1.3690 hc         1 A21       0.064700
     24 H4B         -4.0300     0.7290    -1.7760 hc         1 A21       0.064700
     25 H1           2.1530     1.8010    -0.9720 h1         1 A21       0.097700
     26 H3           4.2120     2.4600     0.2690 hc         1 A21       0.051700
     27 H3A          2.8790     3.5710     0.5810 hc         1 A21       0.051700
     28 H3B          3.3340     2.3590     1.7930 hc         1 A21       0.051700
     29 H22          1.8800    -0.2420     2.1300 ha         1 A21       0.111000
     30 H21          2.7810    -2.5170     2.3430 ha         1 A21       0.121000
     31 H9           4.2030    -3.4630     0.5450 ha         1 A21       0.120000
     32 H19          4.7120    -2.0970    -1.4660 ha         1 A21       0.135000
     33 H12          0.8960     2.2240     1.5690 hn         1 A21       0.513000
@<TRIPOS>BOND
     1     1     2 1   
     2     2     3 1   
     3     2     4 1   
     4     2     5 1   
     5     5     6 1   
     6     5     9 1   
     7     5    10 1   
     8     6     7 2   
     9     6     8 1   
    10     8    11 2   
    11     9    22 1   
    12     9    23 1   
    13     9    24 1   
    14    10    11 1   
    15    11    12 1   
    16    12    13 1   
    17    12    33 1   
    18    13    14 1   
    19    13    15 1   
    20    13    25 1   
    21    14    26 1   
    22    14    27 1   
    23    14    28 1   
    24    15    16 ar  
    25    15    18 ar  
    26    16    17 1   
    27    16    21 ar  
    28    18    19 ar  
    29    18    29 1   
    30    19    20 ar  
    31    19    30 1   
    32    20    21 ar  
    33    20    31 1   
    34    21    32 1   
@<TRIPOS>SUBSTRUCTURE
     1 A21         1 TEMP              0 ****  ****    0 ROOT
