@<TRIPOS>MOLECULE
A24
   59    61     1     0     0
SMALL
bcc


@<TRIPOS>ATOM
      1 C1          -3.3170     0.9290     0.9430 c6         1 A24       0.315900
      2 O1          -3.0700    -0.4610     0.8680 os         1 A24      -0.340900
      3 C2          -4.7560     1.0950     1.4400 c6         1 A24       0.093100
      4 O2          -4.9940     0.3740     2.6210 oh         1 A24      -0.583800
      5 C3          -5.7370     0.6240     0.3740 c6         1 A24       0.116100
      6 O3          -7.0680     0.8970     0.7360 oh         1 A24      -0.607800
      7 C4          -5.4540     1.3510    -0.9390 c6         1 A24       0.124100
      8 O4          -5.7030     2.7320    -0.8350 oh         1 A24      -0.593800
      9 C5          -3.9970     1.1410    -1.3220 c6         1 A24       0.145100
     10 O5          -3.1220     1.5540    -0.2760 os         1 A24      -0.394600
     11 C6          -3.6090     1.9040    -2.5710 c3         1 A24       0.148400
     12 O6          -2.3330     1.4730    -2.9790 oh         1 A24      -0.595800
     13 C9          -1.8380    -0.9170     0.5810 ca         1 A24       0.137100
     14 C10         -1.7430    -2.2970     0.4150 ca         1 A24      -0.091000
     15 C11         -0.5090    -2.8510     0.1380 ca         1 A24      -0.152200
     16 C12          0.6390    -2.0870     0.0060 ca         1 A24      -0.089000
     17 C13          0.5280    -0.7150     0.1690 ca         1 A24      -0.125600
     18 C14         -0.6990    -0.1280     0.4630 ca         1 A24      -0.108000
     19 N1          -0.4140    -4.2990    -0.0190 no         1 A24       0.315200
     20 O7           0.6700    -4.7700    -0.2650 o          1 A24      -0.206000
     21 O8          -1.4230    -4.9500     0.1050 o          1 A24      -0.206000
     22 C7           1.7270     0.1820     0.0910 c          1 A24       0.682700
     23 O9           1.8000     1.1820     0.7910 o          1 A24      -0.595100
     24 N2           2.6710    -0.1840    -0.7860 ns         1 A24      -0.568900
     25 O1B          8.7770     1.5860     0.6900 os         1 A24      -0.402600
     26 C2B          8.7170     0.3580    -0.0020 c6         1 A24       0.129900
     27 C3B          7.3920    -0.3450     0.2200 c6         1 A24       0.126800
     28 N4           6.2960     0.5140    -0.1940 n3         1 A24      -0.720600
     29 C5B          6.3670     1.7760     0.5230 c6         1 A24       0.126800
     30 C6B          7.7170     2.4310     0.3000 c6         1 A24       0.129900
     31 C7B          5.0120    -0.1400    -0.0440 c3         1 A24       0.145800
     32 C8           3.9380     0.5000    -0.9220 c3         1 A24       0.100000
     33 H11         -2.6200     1.3970     1.6480 h2         1 A24       0.085700
     34 H21         -4.9060     2.1700     1.5950 h1         1 A24       0.071700
     35 HO21        -4.7080     0.9020     3.3720 ho         1 A24       0.415000
     36 H31         -5.5940    -0.4530     0.2010 h1         1 A24       0.068700
     37 HO31        -7.2210     0.5560     1.6240 ho         1 A24       0.431000
     38 H41         -6.0710     0.8950    -1.7270 h1         1 A24       0.056700
     39 HO41        -6.6020     2.8500    -0.5090 ho         1 A24       0.425000
     40 H51         -3.8670     0.0700    -1.5270 h1         1 A24       0.065700
     41 H61         -3.6300     2.9810    -2.3710 h1         1 A24       0.040700
     42 H62         -4.3710     1.7020    -3.3350 h1         1 A24       0.040700
     43 HO1         -2.0650     2.0110    -3.7290 ho         1 A24       0.409000
     44 H2'1        -2.6300    -2.9080     0.5120 ha         1 A24       0.184000
     45 H4'1         1.5930    -2.5550    -0.1910 ha         1 A24       0.168000
     46 H6'1        -0.7390     0.9450     0.5860 ha         1 A24       0.175000
     47 HN21         2.5110    -0.9780    -1.3840 hn         1 A24       0.320500
     48 H2'2         8.8660     0.5160    -1.0790 h1         1 A24       0.050950
     49 H3'1         7.3040    -0.6410     1.2800 h1         1 A24       0.043700
     50 H3'2         7.3780    -1.2610    -0.3740 h1         1 A24       0.043700
     51 H5'1         5.5940     2.4600     0.1670 h1         1 A24       0.043700
     52 H5'2         6.1980     1.6320     1.6050 h1         1 A24       0.043700
     53 H6A1         7.7910     3.3430     0.8940 h1         1 A24       0.050950
     54 H6'2         7.8160     2.7080    -0.7590 h1         1 A24       0.050950
     55 H7'1         4.6740    -0.1520     1.0050 h1         1 A24       0.039200
     56 H7'2         5.1230    -1.1830    -0.3490 h1         1 A24       0.039200
     57 H8'1         4.2420     0.4500    -1.9670 h1         1 A24       0.065200
     58 H8'2         3.7920     1.5510    -0.6740 h1         1 A24       0.065200
     59 H2A1         9.5370    -0.2640     0.3630 h1         1 A24       0.050950
@<TRIPOS>BOND
     1     1     2 1   
     2     1     3 1   
     3     1    10 1   
     4     1    33 1   
     5     2    13 1   
     6     3     4 1   
     7     3     5 1   
     8     3    34 1   
     9     4    35 1   
    10     5     6 1   
    11     5     7 1   
    12     5    36 1   
    13     6    37 1   
    14     7     8 1   
    15     7     9 1   
    16     7    38 1   
    17     8    39 1   
    18     9    10 1   
    19     9    11 1   
    20     9    40 1   
    21    11    12 1   
    22    11    41 1   
    23    11    42 1   
    24    12    43 1   
    25    13    14 ar  
    26    13    18 ar  
    27    14    15 ar  
    28    14    44 1   
    29    15    16 ar  
    30    15    19 1   
    31    16    17 ar  
    32    16    45 1   
    33    17    18 ar  
    34    17    22 1   
    35    18    46 1   
    36    19    20 1   
    37    19    21 1   
    38    22    23 2   
    39    22    24 1   
    40    24    32 1   
    41    24    47 1   
    42    25    26 1   
    43    25    30 1   
    44    26    27 1   
    45    26    48 1   
    46    26    59 1   
    47    27    28 1   
    48    27    49 1   
    49    27    50 1   
    50    28    29 1   
    51    28    31 1   
    52    29    30 1   
    53    29    51 1   
    54    29    52 1   
    55    30    53 1   
    56    30    54 1   
    57    31    32 1   
    58    31    55 1   
    59    31    56 1   
    60    32    57 1   
    61    32    58 1   
@<TRIPOS>SUBSTRUCTURE
     1 A24         1 TEMP              0 ****  ****    0 ROOT
