@<TRIPOS>MOLECULE
A24
   59    61     1     0     0
SMALL
No Charge or Current Charge


@<TRIPOS>ATOM
      1 C1          -3.1800     0.6980     1.0870 c6         1 A24       0.362300
      2 O1          -3.0490    -0.6940     0.7190 os         1 A24      -0.364100
      3 C2          -4.5650     0.9790     1.7750 c6         1 A24       0.116300
      4 O2          -4.8250     0.1230     2.9210 oh         1 A24      -0.706000
      5 C3          -5.7200     0.8200     0.7370 c6         1 A24       0.139300
      6 O3          -6.9770     1.1730     1.3480 oh         1 A24      -0.670000
      7 C4          -5.4680     1.6920    -0.5290 c6         1 A24       0.147300
      8 O4          -5.6080     3.0850    -0.1780 oh         1 A24      -0.716000
      9 C5          -4.0530     1.3500    -1.0990 c6         1 A24       0.168300
     10 O5          -3.0270     1.5350    -0.0840 os         1 A24      -0.441000
     11 C6          -3.6850     2.2130    -2.3500 c3         1 A24       0.171600
     12 O6          -2.4050     1.8710    -2.9240 oh         1 A24      -0.718000
     13 C9          -1.8650    -1.2130     0.2270 ca         1 A24       0.137100
     14 C10         -1.8760    -2.5540    -0.1820 ca         1 A24      -0.073000
     15 C11         -0.7080    -3.1660    -0.6910 ca         1 A24      -0.152200
     16 C12          0.4820    -2.4060    -0.7840 ca         1 A24      -0.071000
     17 C13          0.5140    -1.0500    -0.3730 ca         1 A24      -0.125600
     18 C14         -0.6710    -0.4660     0.1320 ca         1 A24      -0.090000
     19 N1          -0.7350    -4.6030    -1.1250 no         1 A24       0.695200
     20 O7           0.3090    -5.1030    -1.5660 o          1 A24      -0.396000
     21 O8          -1.8010    -5.2260    -1.0250 o          1 A24      -0.396000
     22 C7           1.7750    -0.2080    -0.4550 c          1 A24       0.615700
     23 O9           1.8120     0.9470    -0.0530 o          1 A24      -0.595100
     24 N2           2.8930    -0.8030    -1.0040 ns         1 A24      -0.501900
     25 O1B          8.5500     2.2610     0.8070 os         1 A24      -0.449000
     26 C2B          8.5370     0.9080     1.3210 c6         1 A24       0.153100
     27 C3B          7.0730     0.3880     1.4340 c6         1 A24       0.126800
     28 N4           6.3430     0.4860     0.1300 n3         1 A24      -0.720600
     29 C5B          6.4410     1.8780    -0.4200 c6         1 A24       0.126800
     30 C6B          7.9190     2.3700    -0.4910 c6         1 A24       0.153100
     31 C7B          4.9500    -0.0270     0.2240 c3         1 A24       0.145800
     32 C8           4.2080    -0.1570    -1.1300 c3         1 A24       0.100000
     33 H11         -2.3890     0.9490     1.8100 h2         1 A24       0.085700
     34 H21         -4.5470     2.0300     2.1030 h1         1 A24       0.071700
     35 HO21        -4.0940     0.2550     3.5700 ho         1 A24       0.514000
     36 H31         -5.7460    -0.2350     0.4200 h1         1 A24       0.068700
     37 HO31        -6.9510     0.7470     2.2370 ho         1 A24       0.470000
     38 H41         -6.2190     1.4210    -1.2870 h1         1 A24       0.056700
     39 HO41        -6.3730     3.1020     0.4480 ho         1 A24       0.524000
     40 H51         -4.0480     0.2980    -1.4200 h1         1 A24       0.065700
     41 H61         -3.6910     3.2710    -2.0530 h1         1 A24       0.040700
     42 H62         -4.4780     2.0820    -3.0980 h1         1 A24       0.040700
     43 HO1         -2.2280     2.5230    -3.6410 ho         1 A24       0.508000
     44 H2'1        -2.8060    -3.1120    -0.0970 ha         1 A24       0.166000
     45 H4'1         1.3800    -2.8820    -1.1720 ha         1 A24       0.150000
     46 H6'1        -0.6480     0.5740     0.4450 ha         1 A24       0.157000
     47 HN21         2.7960    -1.7560    -1.3280 hn         1 A24       0.320500
     48 H2'2         9.1160     0.2580     0.6480 h1         1 A24       0.050950
     49 H3'1         6.5520     0.9720     2.2080 h1         1 A24       0.043700
     50 H3'2         7.0970    -0.6560     1.7810 h1         1 A24       0.043700
     51 H5'1         6.0160     1.9280    -1.4320 h1         1 A24       0.043700
     52 H5'2         5.8680     2.5770     0.2060 h1         1 A24       0.043700
     53 H6A1         7.9490     3.4180    -0.8200 h1         1 A24       0.050950
     54 H6'2         8.4800     1.7670    -1.2190 h1         1 A24       0.050950
     55 H7'1         4.3610     0.6190     0.8890 h1         1 A24       0.039200
     56 H7'2         4.9670    -1.0250     0.6840 h1         1 A24       0.039200
     57 H8'1         4.8220    -0.7520    -1.8180 h1         1 A24       0.065200
     58 H8'2         4.0690     0.8370    -1.5760 h1         1 A24       0.065200
     59 H2A1         9.0170     0.8930     2.3090 h1         1 A24       0.050950
@<TRIPOS>BOND
     1     1     2 1   
     2     1     3 1   
     3     1    10 1   
     4     1    33 1   
     5     2    13 1   
     6     3     4 1   
     7     3     5 1   
     8     3    34 1   
     9     4    35 1   
    10     5     6 1   
    11     5     7 1   
    12     5    36 1   
    13     6    37 1   
    14     7     8 1   
    15     7     9 1   
    16     7    38 1   
    17     8    39 1   
    18     9    10 1   
    19     9    11 1   
    20     9    40 1   
    21    11    12 1   
    22    11    41 1   
    23    11    42 1   
    24    12    43 1   
    25    13    14 ar  
    26    13    18 ar  
    27    14    15 ar  
    28    14    44 1   
    29    15    16 ar  
    30    15    19 1   
    31    16    17 ar  
    32    16    45 1   
    33    17    18 ar  
    34    17    22 1   
    35    18    46 1   
    36    19    20 1   
    37    19    21 1   
    38    22    23 2   
    39    22    24 1   
    40    24    32 1   
    41    24    47 1   
    42    25    26 1   
    43    25    30 1   
    44    26    27 1   
    45    26    48 1   
    46    26    59 1   
    47    27    28 1   
    48    27    49 1   
    49    27    50 1   
    50    28    29 1   
    51    28    31 1   
    52    29    30 1   
    53    29    51 1   
    54    29    52 1   
    55    30    53 1   
    56    30    54 1   
    57    31    32 1   
    58    31    55 1   
    59    31    56 1   
    60    32    57 1   
    61    32    58 1   
@<TRIPOS>SUBSTRUCTURE
     1 A24         1 TEMP              0 ****  ****    0 ROOT
