@<TRIPOS>MOLECULE
A25
   41    43     1     0     0
SMALL
bcc


@<TRIPOS>ATOM
      1 C1          -0.8560    -1.8290    -1.0310 ca         1 A25      -0.196000
      2 C2          -1.6760    -2.2430    -2.0700 ca         1 A25       0.110100
      3 C3          -2.0120    -1.3360    -3.0980 ca         1 A25       0.057600
      4 C4          -1.5500    -0.0290    -3.0280 ca         1 A25      -0.106000
      5 C5          -0.7340     0.3580    -1.9740 ca         1 A25       0.013400
      6 C6          -0.3750    -0.5260    -0.9790 ca         1 A25      -0.104000
      7 CL7         -0.1620     1.9970    -1.9200 cl         1 A25      -0.110400
      8 O8          -2.2000    -3.4740    -2.1850 os         1 A25      -0.331900
      9 C9          -1.8310    -4.4910    -1.2580 c3         1 A25       0.146400
     10 N10         -2.8210    -1.8120    -4.1340 ns         1 A25      -0.468100
     11 C11         -2.7420    -1.4210    -5.4300 c          1 A25       0.798100
     12 N12         -3.4710    -2.1740    -6.3430 ns         1 A25      -0.566400
     13 O13         -2.0870    -0.4780    -5.8370 o          1 A25      -0.614100
     14 C14         -4.1000    -3.3900    -6.1970 ca         1 A25       0.493900
     15 N15         -4.4470    -3.7950    -4.9900 nb         1 A25      -0.756000
     16 C16         -5.0070    -4.9840    -4.8550 ca         1 A25       0.594300
     17 C17         -5.2370    -5.7990    -5.9620 ca         1 A25       0.183900
     18 N18         -4.9160    -5.3730    -7.1760 nb         1 A25      -0.583000
     19 C19         -4.3590    -4.1890    -7.3190 ca         1 A25       0.212900
     20 O20         -5.3420    -5.2910    -3.6080 os         1 A25      -0.436100
     21 C21         -5.2050    -6.6380    -3.1500 c3         1 A25       0.152400
     22 C22         -5.1010    -6.5930    -1.6350 c3         1 A25      -0.075400
     23 C23         -2.6790    -5.7140    -1.5480 c3         1 A25      -0.075400
     24 C24         -4.1280    -5.5420    -1.1020 c3         1 A25      -0.073400
     25 H12         -3.3280    -1.8670    -7.2950 hn         1 A25       0.342500
     26 H19         -4.1000    -3.8590    -8.3180 h4         1 A25       0.037100
     27 H17         -5.6860    -6.7810    -5.8720 h4         1 A25       0.037100
     28 H211        -4.3130    -7.0870    -3.5980 h1         1 A25       0.040700
     29 H212        -6.0660    -7.2380    -3.4580 h1         1 A25       0.040700
     30 H221        -4.8110    -7.5930    -1.3000 hc         1 A25       0.052700
     31 H222        -6.0890    -6.4010    -1.2110 hc         1 A25       0.052700
     32 H241        -4.1650    -5.5680    -0.0100 hc         1 A25       0.056200
     33 H242        -4.4870    -4.5510    -1.3890 hc         1 A25       0.056200
     34 H231        -2.2310    -6.5650    -1.0300 hc         1 A25       0.050200
     35 H232        -2.6040    -5.9360    -2.6150 hc         1 A25       0.050200
     36 H91         -1.9970    -4.1510    -0.2290 h1         1 A25       0.037700
     37 H92         -0.7650    -4.7160    -1.3680 h1         1 A25       0.037700
     38 H1          -0.5690    -2.5140    -0.2460 ha         1 A25       0.137000
     39 H6           0.2670    -0.2210    -0.1630 ha         1 A25       0.147000
     40 H4          -1.8250     0.6880    -3.7850 ha         1 A25       0.177000
     41 H10         -3.3920    -2.6340    -3.9450 hn         1 A25       0.379500
@<TRIPOS>BOND
     1     1     2 ar  
     2     1     6 ar  
     3     1    38 1   
     4     2     3 ar  
     5     2     8 1   
     6     3     4 ar  
     7     3    10 1   
     8     4     5 ar  
     9     4    40 1   
    10     5     6 ar  
    11     5     7 1   
    12     6    39 1   
    13     8     9 1   
    14     9    23 1   
    15     9    36 1   
    16     9    37 1   
    17    10    11 1   
    18    10    41 1   
    19    11    12 1   
    20    11    13 2   
    21    12    14 1   
    22    12    25 1   
    23    14    15 ar  
    24    14    19 ar  
    25    15    16 ar  
    26    16    17 ar  
    27    16    20 1   
    28    17    18 ar  
    29    17    27 1   
    30    18    19 ar  
    31    19    26 1   
    32    20    21 1   
    33    21    22 1   
    34    21    28 1   
    35    21    29 1   
    36    22    24 1   
    37    22    30 1   
    38    22    31 1   
    39    23    24 1   
    40    23    34 1   
    41    23    35 1   
    42    24    32 1   
    43    24    33 1   
@<TRIPOS>SUBSTRUCTURE
     1 A25         1 TEMP              0 ****  ****    0 ROOT
