@<TRIPOS>MOLECULE
A25
   41    43     1     0     0
SMALL
No Charge or Current Charge


@<TRIPOS>ATOM
      1 C1          -0.8510    -1.7770    -0.9590 ca         1 A25      -0.178000
      2 C2          -1.6280    -2.2060    -2.0590 ca         1 A25       0.110100
      3 C3          -1.8620    -1.3300    -3.1480 ca         1 A25      -0.035000
      4 C4          -1.3160    -0.0250    -3.1060 ca         1 A25      -0.088000
      5 C5          -0.5500     0.3920    -2.0070 ca         1 A25       0.105000
      6 C6          -0.3140    -0.4800    -0.9360 ca         1 A25      -0.086000
      7 Cl7          0.1210     2.0180    -1.9740 cl         1 A25      -0.202000
      8 O8          -2.1780    -3.4740    -2.1050 os         1 A25      -0.355100
      9 C9          -1.8600    -4.4940    -1.1370 c3         1 A25       0.169600
     10 N10         -2.6290    -1.8140    -4.2530 ns         1 A25      -0.142000
     11 C11         -2.9520    -1.2620    -5.4870 c          1 A25       0.664100
     12 N12         -3.6530    -2.0660    -6.3630 ns         1 A25      -0.332900
     13 O13         -2.6220    -0.1380    -5.8400 o          1 A25      -0.614100
     14 C14         -4.1550    -3.3740    -6.2460 ca         1 A25       0.493900
     15 N15         -4.5630    -3.7270    -5.0050 nb         1 A25      -0.756000
     16 C16         -5.0730    -4.9760    -4.8920 ca         1 A25       0.594300
     17 C17         -5.1820    -5.8560    -6.0170 ca         1 A25       0.183900
     18 N18         -4.8010    -5.4930    -7.2760 nb         1 A25      -0.583000
     19 C19         -4.2910    -4.2330    -7.3760 ca         1 A25       0.212900
     20 O20         -5.4360    -5.3630    -3.6280 os         1 A25      -0.459300
     21 C21         -5.2230    -6.7110    -3.1800 c3         1 A25       0.175600
     22 C22         -5.1440    -6.6770    -1.6360 c3         1 A25      -0.075400
     23 C23         -2.7080    -5.7390    -1.4700 c3         1 A25      -0.075400
     24 C24         -4.1970    -5.5870    -1.0610 c3         1 A25      -0.073400
     25 H12         -3.8080    -1.6490    -7.2700 hn         1 A25       0.176000
     26 H19         -3.9780    -3.9070    -8.3660 h4         1 A25       0.037100
     27 H17         -5.5900    -6.8600    -5.9080 h4         1 A25       0.037100
     28 H211        -4.2790    -7.1070    -3.5760 h1         1 A25       0.040700
     29 H212        -6.0360    -7.3720    -3.5070 h1         1 A25       0.040700
     30 H221        -4.8290    -7.6630    -1.2740 hc         1 A25       0.052700
     31 H222        -6.1530    -6.5080    -1.2400 hc         1 A25       0.052700
     32 H241        -4.2630    -5.6060     0.0340 hc         1 A25       0.056200
     33 H242        -4.5600    -4.5980    -1.3640 hc         1 A25       0.056200
     34 H231        -2.2850    -6.6080    -0.9520 hc         1 A25       0.050200
     35 H232        -2.6180    -5.9380    -2.5440 hc         1 A25       0.050200
     36 H91         -2.0860    -4.1630    -0.1150 h1         1 A25       0.037700
     37 H92         -0.7940    -4.7520    -1.1960 h1         1 A25       0.037700
     38 H1          -0.6550    -2.4300    -0.1140 ha         1 A25       0.119000
     39 H6           0.2820    -0.1500    -0.0890 ha         1 A25       0.129000
     40 H4          -1.4710     0.6850    -3.9110 ha         1 A25       0.159000
     41 H10         -3.0120    -2.7420    -4.1100 hn         1 A25       0.213000
@<TRIPOS>BOND
     1     1     2 ar  
     2     1     6 ar  
     3     1    38 1   
     4     2     3 ar  
     5     2     8 1   
     6     3     4 ar  
     7     3    10 1   
     8     4     5 ar  
     9     4    40 1   
    10     5     6 ar  
    11     5     7 1   
    12     6    39 1   
    13     8     9 1   
    14     9    23 1   
    15     9    36 1   
    16     9    37 1   
    17    10    11 1   
    18    10    41 1   
    19    11    12 1   
    20    11    13 2   
    21    12    14 1   
    22    12    25 1   
    23    14    15 ar  
    24    14    19 ar  
    25    15    16 ar  
    26    16    17 ar  
    27    16    20 1   
    28    17    18 ar  
    29    17    27 1   
    30    18    19 ar  
    31    19    26 1   
    32    20    21 1   
    33    21    22 1   
    34    21    28 1   
    35    21    29 1   
    36    22    24 1   
    37    22    30 1   
    38    22    31 1   
    39    23    24 1   
    40    23    34 1   
    41    23    35 1   
    42    24    32 1   
    43    24    33 1   
@<TRIPOS>SUBSTRUCTURE
     1 A25         1 TEMP              0 ****  ****    0 ROOT
