@<TRIPOS>MOLECULE
A26
   28    28     1     0     0
SMALL
bcc


@<TRIPOS>ATOM
      1 C1          -0.8530     0.9100    -0.3820 ca         1 A26      -0.182000
      2 C2          -2.2440     0.9060    -0.3850 ca         1 A26      -0.049500
      3 C3          -2.9740    -0.1990    -0.0030 ca         1 A26      -0.230300
      4 C4          -2.3030    -1.3460     0.4000 ca         1 A26      -0.049500
      5 C5          -0.9290    -1.3580     0.4360 ca         1 A26      -0.182000
      6 C6          -0.1750    -0.2390     0.0340 ca         1 A26       0.111600
      7 C11         -4.4650    -0.1860    -0.0750 c3         1 A26       0.725200
      8 F12         -4.9180    -0.7560    -1.2060 f          1 A26      -0.237300
      9 F13         -5.0230    -0.8640     0.9350 f          1 A26      -0.237300
     10 F14         -4.9650     1.0550    -0.0430 f          1 A26      -0.237300
     11 N15          1.2070    -0.3840     0.0550 ns         1 A26      -0.472100
     12 C16          2.1810     0.5460    -0.1670 c          1 A26       0.719300
     13 C17          3.5620     0.0090    -0.0640 ce         1 A26      -0.205900
     14 C18          3.7620    -1.3930    -0.1060 cg         1 A26       0.203500
     15 C19          4.6720     0.8080     0.0410 c2         1 A26       0.230900
     16 O20          4.5340     2.1110     0.1020 oh         1 A26      -0.434100
     17 C21          6.0670     0.2920     0.1200 c3         1 A26      -0.128900
     18 O25          1.9460     1.7060    -0.4330 o          1 A26      -0.558100
     19 N26          3.8690    -2.5430    -0.1420 n1         1 A26      -0.376800
     20 H11         -0.3330     1.7880    -0.7220 ha         1 A26       0.154000
     21 H21         -2.7240     1.8150    -0.7200 ha         1 A26       0.147000
     22 H41         -2.8310    -2.2390     0.7100 ha         1 A26       0.147000
     23 H51         -0.4160    -2.2550     0.7620 ha         1 A26       0.154000
     24 HN11         1.5080    -1.3060     0.3350 hn         1 A26       0.324500
     25 HO20         5.3920     2.5430     0.2050 ho         1 A26       0.442000
     26 H211         6.1330    -0.7880     0.0400 hc         1 A26       0.074367
     27 H212         6.6630     0.7250    -0.6850 hc         1 A26       0.074367
     28 H213         6.5190     0.5910     1.0680 hc         1 A26       0.074367
@<TRIPOS>BOND
     1     1     2 ar  
     2     1     6 ar  
     3     1    20 1   
     4     2     3 ar  
     5     2    21 1   
     6     3     4 ar  
     7     3     7 1   
     8     4     5 ar  
     9     4    22 1   
    10     5     6 ar  
    11     5    23 1   
    12     6    11 1   
    13     7     8 1   
    14     7     9 1   
    15     7    10 1   
    16    11    12 1   
    17    11    24 1   
    18    12    13 1   
    19    12    18 2   
    20    13    14 1   
    21    13    15 2   
    22    14    19 3   
    23    15    16 1   
    24    15    17 1   
    25    16    25 1   
    26    17    26 1   
    27    17    27 1   
    28    17    28 1   
@<TRIPOS>SUBSTRUCTURE
     1 A26         1 TEMP              0 ****  ****    0 ROOT
