@<TRIPOS>MOLECULE
A26
   28    28     1     0     0
SMALL
No Charge or Current Charge


@<TRIPOS>ATOM
      1 C1          -0.8990     0.7690    -0.7140 ca         1 A26      -0.164000
      2 C2          -2.3040     0.7960    -0.6630 ca         1 A26      -0.031500
      3 C3          -3.0160    -0.1900     0.0510 ca         1 A26      -0.230300
      4 C4          -2.2950    -1.2150     0.6960 ca         1 A26      -0.031500
      5 C5          -0.8910    -1.2390     0.6430 ca         1 A26      -0.164000
      6 C6          -0.1770    -0.2470    -0.0520 ca         1 A26       0.019000
      7 C11         -4.5470    -0.1660     0.0960 c3         1 A26       0.361300
      8 F12         -5.0800    -0.8570    -0.9370 f          1 A26      -0.116000
      9 F13         -5.0380    -0.7130     1.2320 f          1 A26      -0.116000
     10 F14         -5.0440     1.0910     0.0290 f          1 A26      -0.116000
     11 N15          1.2410    -0.3420    -0.0670 ns         1 A26      -0.146000
     12 C16          2.2350     0.5380    -0.4860 c          1 A26       0.652300
     13 C17          3.6370     0.0200    -0.3320 ce         1 A26      -0.205900
     14 C18          3.8210    -1.3840    -0.5350 cg         1 A26       0.292700
     15 C19          4.6730     0.7910     0.0860 c2         1 A26       0.230900
     16 O20          4.5280     2.0960     0.3780 oh         1 A26      -0.473100
     17 C21          6.0950     0.2920     0.3010 c3         1 A26      -0.128900
     18 O25          1.9940     1.6760    -0.8740 o          1 A26      -0.558100
     19 N26          3.9330    -2.5350    -0.6780 n1         1 A26      -0.466000
     20 H11         -0.3940     1.5410    -1.2850 ha         1 A26       0.136000
     21 H21         -2.8360     1.5870    -1.1890 ha         1 A26       0.129000
     22 H41         -2.8180    -2.0010     1.2400 ha         1 A26       0.129000
     23 H51         -0.3550    -2.0390     1.1500 ha         1 A26       0.136000
     24 HN11         1.5920    -1.2210     0.2890 hn         1 A26       0.158000
     25 HO20         5.3990     2.4420     0.6620 ho         1 A26       0.481000
     26 H211         6.4750    -0.2050    -0.5990 hc         1 A26       0.074367
     27 H212         6.8000     1.0960     0.5440 hc         1 A26       0.074367
     28 H213         6.1320    -0.4330     1.1230 hc         1 A26       0.074367
@<TRIPOS>BOND
     1     1     2 ar  
     2     1     6 ar  
     3     1    20 1   
     4     2     3 ar  
     5     2    21 1   
     6     3     4 ar  
     7     3     7 1   
     8     4     5 ar  
     9     4    22 1   
    10     5     6 ar  
    11     5    23 1   
    12     6    11 1   
    13     7     8 1   
    14     7     9 1   
    15     7    10 1   
    16    11    12 1   
    17    11    24 1   
    18    12    13 1   
    19    12    18 2   
    20    13    14 1   
    21    13    15 2   
    22    14    19 3   
    23    15    16 1   
    24    15    17 1   
    25    16    25 1   
    26    17    26 1   
    27    17    27 1   
    28    17    28 1   
@<TRIPOS>SUBSTRUCTURE
     1 A26         1 TEMP              0 ****  ****    0 ROOT
