@<TRIPOS>MOLECULE
A27
   49    52     1     0     0
SMALL
abcg2


@<TRIPOS>ATOM
      1 C1          -1.8540    -3.9410    -0.6520 ca         1 A27      -0.111500
      2 C2          -1.1800    -2.7290    -0.7360 ca         1 A27      -0.099000
      3 C3          -1.4720    -1.6880     0.1440 cp         1 A27      -0.034000
      4 C4          -2.4520    -1.8900     1.1150 ca         1 A27      -0.099000
      5 C5          -3.1240    -3.0990     1.2020 ca         1 A27      -0.111500
      6 C6          -2.8300    -4.1290     0.3160 ca         1 A27      -0.108000
      7 C12         -0.7210    -0.4130     0.0690 cp         1 A27      -0.069000
      8 C13         -1.3890     0.8470    -0.0210 cq         1 A27       0.031000
      9 C14         -0.6690     2.0280    -0.0330 ca         1 A27      -0.133000
     10 C15          0.7240     1.9570     0.0360 ca         1 A27      -0.014200
     11 C16          1.3910     0.7280     0.1040 ca         1 A27      -0.261900
     12 C17          0.6590    -0.4610     0.1210 ca         1 A27      -0.025000
     13 C20         -2.8620     0.9320    -0.1310 cq         1 A27      -0.087000
     14 C21         -3.5670     0.2140    -1.0980 ca         1 A27      -0.053000
     15 C22         -4.9400     0.3190    -1.2150 ca         1 A27      -0.179000
     16 C23         -5.6520     1.1500    -0.3510 ca         1 A27       0.145100
     17 C24         -4.9650     1.8770     0.6170 ca         1 A27      -0.179000
     18 C25         -3.5870     1.7660     0.7160 ca         1 A27      -0.053000
     19 O30         -6.9900     1.2110    -0.4980 oh         1 A27      -0.532100
     20 N31          1.6850     2.9040     0.0310 na         1 A27      -0.064400
     21 N32          2.9220     2.3840     0.1030 nc         1 A27      -0.510100
     22 C33          2.7710     1.0860     0.1450 cd         1 A27       0.429500
     23 N34          3.8080     0.1730     0.2360 ns         1 A27      -0.412400
     24 C35          5.1260     0.3810    -0.0520 c          1 A27       0.605100
     25 C36          5.9800    -0.8530     0.1440 c3         1 A27      -0.160400
     26 C37          7.4470    -0.6530    -0.2000 c3         1 A27      -0.064400
     27 C40          8.2520    -1.9220     0.0430 c3         1 A27      -0.093100
     28 O46          5.5620     1.4510    -0.4230 o          1 A27      -0.543100
     29 H1          -1.6180    -4.7350    -1.3480 ha         1 A27       0.112500
     30 H2          -0.4280    -2.5870    -1.5030 ha         1 A27       0.116000
     31 H4          -2.6860    -1.0980     1.8150 ha         1 A27       0.116000
     32 H5          -3.8780    -3.2390     1.9660 ha         1 A27       0.112500
     33 H6          -3.3570    -5.0720     0.3820 ha         1 A27       0.112000
     34 H14         -1.1770     2.9800    -0.1250 ha         1 A27       0.125000
     35 H17          1.1590    -1.4190     0.2040 ha         1 A27       0.115000
     36 H21         -3.0340    -0.4320    -1.7850 ha         1 A27       0.119000
     37 H22         -5.4670    -0.2380    -1.9800 ha         1 A27       0.122500
     38 H24         -5.5030     2.5260     1.3000 ha         1 A27       0.122500
     39 H25         -3.0700     2.3290     1.4840 ha         1 A27       0.119000
     40 HO30        -7.3720     1.8230     0.1410 ho         1 A27       0.465000
     41 HN34         3.5400    -0.7620     0.5010 hn         1 A27       0.321500
     42 H36          5.8800    -1.1750     1.1860 hc         1 A27       0.057200
     43 H36A         5.5610    -1.6690    -0.4540 hc         1 A27       0.057200
     44 H37          7.5450    -0.3510    -1.2450 hc         1 A27       0.056700
     45 H37A         7.8590     0.1630     0.3980 hc         1 A27       0.056700
     46 H40          9.3010    -1.7780    -0.2150 hc         1 A27       0.033367
     47 H40A         8.2080    -2.2260     1.0910 hc         1 A27       0.033367
     48 H40B         7.8750    -2.7530    -0.5560 hc         1 A27       0.033367
     49 HN31         1.5730     3.9030    -0.0150 hn         1 A27       0.382000
@<TRIPOS>BOND
     1     1     2 ar  
     2     1     6 ar  
     3     1    29 1   
     4     2     3 ar  
     5     2    30 1   
     6     3     4 ar  
     7     3     7 1   
     8     4     5 ar  
     9     4    31 1   
    10     5     6 ar  
    11     5    32 1   
    12     6    33 1   
    13     7     8 1   
    14     7    12 ar  
    15     8     9 2   
    16     8    13 1   
    17     9    10 ar  
    18     9    34 1   
    19    10    11 ar  
    20    10    20 1   
    21    11    12 ar  
    22    11    22 1   
    23    12    35 1   
    24    13    14 1   
    25    13    18 2   
    26    14    15 ar  
    27    14    36 1   
    28    15    16 ar  
    29    15    37 1   
    30    16    17 ar  
    31    16    19 1   
    32    17    18 ar  
    33    17    38 1   
    34    18    39 1   
    35    19    40 1   
    36    20    21 1   
    37    20    49 1   
    38    21    22 2   
    39    22    23 1   
    40    23    24 1   
    41    23    41 1   
    42    24    25 1   
    43    24    28 2   
    44    25    26 1   
    45    25    42 1   
    46    25    43 1   
    47    26    27 1   
    48    26    44 1   
    49    26    45 1   
    50    27    46 1   
    51    27    47 1   
    52    27    48 1   
@<TRIPOS>SUBSTRUCTURE
     1 A27         1 TEMP              0 ****  ****    0 ROOT
