@<TRIPOS>MOLECULE
A27
   49    52     1     0     0
SMALL
No Charge or Current Charge


@<TRIPOS>ATOM
      1 C1          -1.3780    -4.0690    -0.4500 ca         1 A27      -0.111500
      2 C2          -0.7590    -2.8090    -0.5250 ca         1 A27      -0.099000
      3 C3          -1.2490    -1.7090     0.2220 cp         1 A27      -0.034000
      4 C4          -2.3750    -1.9210     1.0570 ca         1 A27      -0.099000
      5 C5          -2.9950    -3.1800     1.1330 ca         1 A27      -0.111500
      6 C6          -2.4970    -4.2550     0.3780 ca         1 A27      -0.108000
      7 C12         -0.5870    -0.3690     0.1430 cp         1 A27      -0.069000
      8 C13         -1.3410     0.9120     0.0560 cq         1 A27       0.031000
      9 C14         -0.6540     2.1440     0.1310 ca         1 A27      -0.133000
     10 C15          0.7430     2.0970     0.2520 ca         1 A27      -0.014200
     11 C16          1.4430     0.9290     0.2990 ca         1 A27      -0.261900
     12 C17          0.8270    -0.3310     0.2510 ca         1 A27      -0.025000
     13 C20         -2.8260     0.9740    -0.1880 cq         1 A27      -0.087000
     14 C21         -3.4350     0.1230    -1.1350 ca         1 A27      -0.053000
     15 C22         -4.8210     0.1860    -1.3640 ca         1 A27      -0.179000
     16 C23         -5.6110     1.1000    -0.6570 ca         1 A27       0.145100
     17 C24         -5.0180     1.9570     0.2810 ca         1 A27      -0.179000
     18 C25         -3.6320     1.8980     0.5130 ca         1 A27      -0.053000
     19 O30         -6.9530     1.1520    -0.8870 oh         1 A27      -0.532100
     20 N31          1.6430     3.1430     0.3290 na         1 A27      -0.064400
     21 N32          2.9580     2.6520     0.4360 nc         1 A27      -0.510100
     22 C33          2.8260     1.3200     0.4180 cd         1 A27       0.429500
     23 N34          3.8270     0.3860     0.4950 ns         1 A27      -0.412400
     24 C35          5.1830     0.5870     0.6070 c          1 A27       0.605100
     25 C36          6.0100    -0.7050     0.6790 c3         1 A27      -0.160400
     26 C37          6.7780    -0.9640    -0.6390 c3         1 A27      -0.064400
     27 C40          7.6180    -2.2560    -0.6010 c3         1 A27      -0.093100
     28 O46          5.7100     1.6890     0.6730 o          1 A27      -0.543100
     29 H1          -0.9910    -4.9010    -1.0350 ha         1 A27       0.112500
     30 H2           0.1010    -2.6800    -1.1780 ha         1 A27       0.116000
     31 H4          -2.7650    -1.1010     1.6550 ha         1 A27       0.116000
     32 H5          -3.8590    -3.3220     1.7780 ha         1 A27       0.112500
     33 H6          -2.9760    -5.2300     0.4360 ha         1 A27       0.112000
     34 H14         -1.1680     3.0990     0.0590 ha         1 A27       0.125000
     35 H17          1.4090    -1.2460     0.3320 ha         1 A27       0.115000
     36 H21         -2.8400    -0.5870    -1.7050 ha         1 A27       0.119000
     37 H22         -5.2790    -0.4760    -2.0940 ha         1 A27       0.122500
     38 H24         -5.6220     2.6710     0.8350 ha         1 A27       0.122500
     39 H25         -3.1950     2.5650     1.2530 ha         1 A27       0.119000
     40 HO30        -7.3400     1.8440    -0.3090 ho         1 A27       0.465000
     41 HN34         3.5540    -0.5840     0.4620 hn         1 A27       0.321500
     42 H36          6.7410    -0.6060     1.4910 hc         1 A27       0.057200
     43 H36A         5.3560    -1.5640     0.8740 hc         1 A27       0.057200
     44 H37          6.0650    -1.0270    -1.4710 hc         1 A27       0.056700
     45 H37A         7.4400    -0.1150    -0.8510 hc         1 A27       0.056700
     46 H40          8.1440    -2.3980    -1.5520 hc         1 A27       0.033367
     47 H40A         8.3660    -2.2090     0.2000 hc         1 A27       0.033367
     48 H40B         6.9790    -3.1300    -0.4280 hc         1 A27       0.033367
     49 HN31         1.4280     4.1390     0.3150 hn         1 A27       0.382000
@<TRIPOS>BOND
     1     1     2 ar  
     2     1     6 ar  
     3     1    29 1   
     4     2     3 ar  
     5     2    30 1   
     6     3     4 ar  
     7     3     7 1   
     8     4     5 ar  
     9     4    31 1   
    10     5     6 ar  
    11     5    32 1   
    12     6    33 1   
    13     7     8 1   
    14     7    12 ar  
    15     8     9 2   
    16     8    13 1   
    17     9    10 ar  
    18     9    34 1   
    19    10    11 ar  
    20    10    20 1   
    21    11    12 ar  
    22    11    22 1   
    23    12    35 1   
    24    13    14 1   
    25    13    18 2   
    26    14    15 ar  
    27    14    36 1   
    28    15    16 ar  
    29    15    37 1   
    30    16    17 ar  
    31    16    19 1   
    32    17    18 ar  
    33    17    38 1   
    34    18    39 1   
    35    19    40 1   
    36    20    21 1   
    37    20    49 1   
    38    21    22 2   
    39    22    23 1   
    40    23    24 1   
    41    23    41 1   
    42    24    25 1   
    43    24    28 2   
    44    25    26 1   
    45    25    42 1   
    46    25    43 1   
    47    26    27 1   
    48    26    44 1   
    49    26    45 1   
    50    27    46 1   
    51    27    47 1   
    52    27    48 1   
@<TRIPOS>SUBSTRUCTURE
     1 A27         1 TEMP              0 ****  ****    0 ROOT
