@<TRIPOS>MOLECULE
A28
   38    40     1     0     0
SMALL
No Charge or Current Charge


@<TRIPOS>ATOM
      1 C1           1.7920    -0.0510    -0.0740 cp         1 A28      -0.092000
      2 C2           2.3090    -1.3780    -0.2340 ca         1 A28       0.186000
      3 C3           1.4530    -2.5030    -0.2050 ca         1 A28       0.095000
      4 C4           0.3880     0.1090     0.1080 ca         1 A28      -0.012000
      5 N5          -0.9600    -3.1900     0.0500 na         1 A28      -0.046400
      6 N6          -2.1790    -2.5140     0.2480 nc         1 A28      -0.507100
      7 C7          -1.8460    -1.2170     0.2970 cd         1 A28       0.438500
      8 C8          -0.4240    -1.0350     0.1310 ca         1 A28      -0.259900
      9 C9           0.0840    -2.2850    -0.0170 ca         1 A28      -0.033200
     10 C10          2.6790     1.1540    -0.1000 cp         1 A28      -0.037000
     11 C11          3.8980     1.1910     0.6220 ca         1 A28      -0.092000
     12 C12          4.7200     2.3320     0.6000 ca         1 A28      -0.111000
     13 C13          4.3350     3.4610    -0.1420 ca         1 A28      -0.102000
     14 C14          3.1280     3.4490    -0.8590 ca         1 A28      -0.111000
     15 C15          2.3070     2.3080    -0.8350 ca         1 A28      -0.092000
     16 F16          3.6320    -1.5740    -0.4470 f          1 A28      -0.154000
     17 F17          1.9370    -3.7580    -0.3620 f          1 A28      -0.157000
     18 N18         -2.6870    -0.1500     0.4740 ns         1 A28      -0.413400
     19 C19         -4.0530    -0.1520     0.6400 c          1 A28       0.605100
     20 C20         -4.6710     1.2400     0.8250 c3         1 A28      -0.159400
     21 O21         -4.7380    -1.1650     0.6690 o          1 A28      -0.536100
     22 C22         -5.4430     1.6950    -0.4370 c3         1 A28      -0.065400
     23 C23         -6.0760     3.0910    -0.2840 c3         1 A28      -0.093100
     24 H4          -0.0410     1.1000     0.2380 ha         1 A28       0.123000
     25 H11          4.2040     0.3330     1.2140 ha         1 A28       0.116000
     26 H12          5.6520     2.3420     1.1610 ha         1 A28       0.115000
     27 H13          4.9710     4.3440    -0.1590 ha         1 A28       0.114000
     28 H14          2.8280     4.3220    -1.4330 ha         1 A28       0.115000
     29 H15          1.3790     2.3120    -1.4010 ha         1 A28       0.116000
     30 HN18        -2.2710     0.7680     0.4830 hn         1 A28       0.323500
     31 H20         -5.3750     1.2010     1.6650 hc         1 A28       0.057700
     32 H20A        -3.8870     1.9790     1.0360 hc         1 A28       0.057700
     33 H22         -4.7620     1.7030    -1.2980 hc         1 A28       0.057200
     34 H22A        -6.2330     0.9680    -0.6640 hc         1 A28       0.057200
     35 H23         -6.7890     3.1050     0.5490 hc         1 A28       0.034033
     36 H23A        -5.3060     3.8490    -0.0940 hc         1 A28       0.034033
     37 H23B        -6.6120     3.3700    -1.1990 hc         1 A28       0.034033
     38 HN5         -0.8970    -4.2050    -0.0280 hn         1 A28       0.394000
@<TRIPOS>BOND
     1     1     2 ar  
     2     1     4 ar  
     3     1    10 1   
     4     2     3 ar  
     5     2    16 1   
     6     3     9 ar  
     7     3    17 1   
     8     4     8 ar  
     9     4    24 1   
    10     5     6 1   
    11     5     9 1   
    12     5    38 1   
    13     6     7 2   
    14     7     8 1   
    15     7    18 1   
    16     8     9 ar  
    17    10    11 ar  
    18    10    15 ar  
    19    11    12 ar  
    20    11    25 1   
    21    12    13 ar  
    22    12    26 1   
    23    13    14 ar  
    24    13    27 1   
    25    14    15 ar  
    26    14    28 1   
    27    15    29 1   
    28    18    19 1   
    29    18    30 1   
    30    19    20 1   
    31    19    21 2   
    32    20    22 1   
    33    20    31 1   
    34    20    32 1   
    35    22    23 1   
    36    22    33 1   
    37    22    34 1   
    38    23    35 1   
    39    23    36 1   
    40    23    37 1   
@<TRIPOS>SUBSTRUCTURE
     1 A28         1 TEMP              0 ****  ****    0 ROOT
