@<TRIPOS>MOLECULE
A28
   38    40     1     0     0
SMALL
bcc


@<TRIPOS>ATOM
      1 C1           1.9310     0.0030    -0.0110 cp         1 A28      -0.092000
      2 C2           2.3600    -1.3410    -0.0680 ca         1 A28       0.150900
      3 C3           1.4940    -2.4010    -0.0620 ca         1 A28       0.059900
      4 C4           0.5750     0.2610     0.0350 ca         1 A28      -0.030000
      5 N5          -0.9570    -2.9210     0.0120 na         1 A28       0.003900
      6 N6          -2.0970    -2.2100     0.0710 nc         1 A28      -0.507100
      7 C7          -1.7490    -0.9510     0.0870 cd         1 A28       0.438500
      8 C8          -0.3270    -0.8060     0.0400 ca         1 A28      -0.259900
      9 C9           0.1290    -2.1310    -0.0070 ca         1 A28      -0.033200
     10 C10          2.9150     1.1070    -0.0220 cp         1 A28      -0.037000
     11 C11          3.9710     1.1480     0.8890 ca         1 A28      -0.110000
     12 C12          4.8590     2.2130     0.8900 ca         1 A28      -0.129000
     13 C13          4.7070     3.2530    -0.0190 ca         1 A28      -0.120000
     14 C14          3.6590     3.2210    -0.9280 ca         1 A28      -0.129000
     15 C15          2.7720     2.1550    -0.9310 ca         1 A28      -0.110000
     16 F16          3.6680    -1.6020    -0.1540 f          1 A28      -0.118900
     17 F17          1.9340    -3.6590    -0.1190 f          1 A28      -0.121900
     18 N18         -2.6310     0.1110     0.1520 ns         1 A28      -0.480400
     19 C19         -3.9910     0.0690     0.0230 c          1 A28       0.672100
     20 C20         -4.6460     1.4250     0.1610 c3         1 A28      -0.159400
     21 O21         -4.6030    -0.9590    -0.1750 o          1 A28      -0.536100
     22 C22         -6.1470     1.4100    -0.0780 c3         1 A28      -0.065400
     23 C23         -6.7550     2.7960     0.0920 c3         1 A28      -0.093100
     24 H4           0.2330     1.2870     0.0850 ha         1 A28       0.141000
     25 H11          4.0900     0.3610     1.6230 ha         1 A28       0.134000
     26 H12          5.6690     2.2340     1.6070 ha         1 A28       0.133000
     27 H13          5.4010     4.0830    -0.0160 ha         1 A28       0.132000
     28 H14          3.5330     4.0250    -1.6420 ha         1 A28       0.133000
     29 H15          1.9650     2.1290    -1.6530 ha         1 A28       0.134000
     30 HN18        -2.2150     1.0170     0.3040 hn         1 A28       0.323500
     31 H20         -4.4280     1.8080     1.1640 hc         1 A28       0.057700
     32 H20A        -4.1600     2.1240    -0.5290 hc         1 A28       0.057700
     33 H22         -6.3560     1.0370    -1.0830 hc         1 A28       0.057200
     34 H22A        -6.6230     0.7120     0.6140 hc         1 A28       0.057200
     35 H23         -6.5870     3.1810     1.1000 hc         1 A28       0.034033
     36 H23A        -6.3190     3.5090    -0.6100 hc         1 A28       0.034033
     37 H23B        -7.8310     2.7760    -0.0800 hc         1 A28       0.034033
     38 HN5         -0.9960    -3.9260    -0.0200 hn         1 A28       0.343700
@<TRIPOS>BOND
     1     1     2 ar  
     2     1     4 ar  
     3     1    10 1   
     4     2     3 ar  
     5     2    16 1   
     6     3     9 ar  
     7     3    17 1   
     8     4     8 ar  
     9     4    24 1   
    10     5     6 1   
    11     5     9 1   
    12     5    38 1   
    13     6     7 2   
    14     7     8 1   
    15     7    18 1   
    16     8     9 ar  
    17    10    11 ar  
    18    10    15 ar  
    19    11    12 ar  
    20    11    25 1   
    21    12    13 ar  
    22    12    26 1   
    23    13    14 ar  
    24    13    27 1   
    25    14    15 ar  
    26    14    28 1   
    27    15    29 1   
    28    18    19 1   
    29    18    30 1   
    30    19    20 1   
    31    19    21 2   
    32    20    22 1   
    33    20    31 1   
    34    20    32 1   
    35    22    23 1   
    36    22    33 1   
    37    22    34 1   
    38    23    35 1   
    39    23    36 1   
    40    23    37 1   
@<TRIPOS>SUBSTRUCTURE
     1 A28         1 TEMP              0 ****  ****    0 ROOT
