@<TRIPOS>MOLECULE
A29
   17    17     1     0     0
SMALL
abcg2


@<TRIPOS>ATOM
      1 C8           2.4820    -0.1340     0.1150 c          1 A29       0.663000
      2 O1           2.6270    -0.7420     1.1880 o          1 A29      -0.699000
      3 O2           3.2270    -0.0900    -0.8740 o          1 A29      -0.699000
      4 C7           1.2130     0.7180     0.0440 c          1 A29       0.447700
      5 C1          -0.1150     0.0420     0.0070 ca         1 A29      -0.100600
      6 C2          -1.2630     0.8330    -0.0450 ca         1 A29      -0.171000
      7 C3          -2.5170     0.2450    -0.1200 ca         1 A29       0.099100
      8 C4          -2.6280    -1.1460    -0.1550 ca         1 A29      -0.149000
      9 C5          -1.4860    -1.9270    -0.1070 ca         1 A29      -0.111000
     10 C6          -0.2270    -1.3450    -0.0230 ca         1 A29      -0.081000
     11 O3          -3.6560     0.9630    -0.1680 oh         1 A29      -0.556100
     12 O7           1.2960     1.9320     0.0410 o          1 A29      -0.572100
     13 HA          -1.1700     1.9130    -0.0280 ha         1 A29       0.122000
     14 H6           0.6480    -1.9770     0.0300 ha         1 A29       0.147000
     15 H4          -3.6060    -1.6050    -0.2190 ha         1 A29       0.105000
     16 H3          -3.4620     1.9070    -0.1290 ho         1 A29       0.456000
     17 H5          -1.5800    -3.0040    -0.1330 ha         1 A29       0.100000
@<TRIPOS>BOND
     1     1     2 1   
     2     1     3 1   
     3     1     4 1   
     4     4     5 1   
     5     4    12 2   
     6     5     6 ar  
     7     5    10 ar  
     8     6     7 ar  
     9     6    13 1   
    10     7     8 ar  
    11     7    11 1   
    12     8     9 ar  
    13     8    15 1   
    14     9    10 ar  
    15     9    17 1   
    16    10    14 1   
    17    11    16 1   
@<TRIPOS>SUBSTRUCTURE
     1 A29         1 TEMP              0 ****  ****    0 ROOT
