@<TRIPOS>MOLECULE
A29
   17    17     1     0     0
SMALL
No Charge or Current Charge


@<TRIPOS>ATOM
      1 C8           2.5510    -0.1560     0.1520 c          1 A29       0.663000
      2 O1           2.9110    -0.5780     1.2480 o          1 A29      -0.699000
      3 O2           3.1430    -0.4050    -0.8960 o          1 A29      -0.699000
      4 C7           1.2290     0.7660     0.0830 c          1 A29       0.447700
      5 C1          -0.1280     0.0850    -0.0050 ca         1 A29      -0.100600
      6 C2          -1.3160     0.8560    -0.0450 ca         1 A29      -0.171000
      7 C3          -2.5710     0.2310    -0.1280 ca         1 A29       0.099100
      8 C4          -2.6610    -1.1670    -0.1720 ca         1 A29      -0.149000
      9 C5          -1.4930    -1.9450    -0.1330 ca         1 A29      -0.111000
     10 C6          -0.2340    -1.3250    -0.0510 ca         1 A29      -0.081000
     11 O3          -3.7080     0.9810    -0.1650 oh         1 A29      -0.556100
     12 O7           1.3160     2.0000     0.1010 o          1 A29      -0.572100
     13 HA          -1.2580     1.9410    -0.0120 ha         1 A29       0.122000
     14 H6           0.6530    -1.9540    -0.0240 ha         1 A29       0.147000
     15 H4          -3.6330    -1.6490    -0.2350 ha         1 A29       0.105000
     16 H3          -3.4580     1.9300    -0.1260 ho         1 A29       0.456000
     17 H5          -1.5620    -3.0300    -0.1680 ha         1 A29       0.100000
@<TRIPOS>BOND
     1     1     2 1   
     2     1     3 1   
     3     1     4 1   
     4     4     5 1   
     5     4    12 2   
     6     5     6 ar  
     7     5    10 ar  
     8     6     7 ar  
     9     6    13 1   
    10     7     8 ar  
    11     7    11 1   
    12     8     9 ar  
    13     8    15 1   
    14     9    10 ar  
    15     9    17 1   
    16    10    14 1   
    17    11    16 1   
@<TRIPOS>SUBSTRUCTURE
     1 A29         1 TEMP              0 ****  ****    0 ROOT
