@<TRIPOS>MOLECULE
A2C
   46    47     1     0     0
SMALL
abcg2


@<TRIPOS>ATOM
      1 NAA         -6.8980     1.5690    -1.2970 nv         1 A2C      -1.051200
      2 CAB         -6.0530     0.5530    -1.6520 ce         1 A2C       0.666800
      3 CAC         -5.1100     0.1180    -0.5890 ca         1 A2C      -0.223900
      4 CAD         -5.3670     0.3310     0.7680 ca         1 A2C      -0.033000
      5 CAE         -4.4860    -0.0900     1.7460 ca         1 A2C      -0.201000
      6 CAF          4.9450     1.3670    -1.5440 ca         1 A2C      -0.201000
      7 CAG          4.5850     2.2200    -0.5180 ca         1 A2C      -0.033000
      8 CAH          3.9250     1.7440     0.6140 ca         1 A2C      -0.223900
      9 CAI          3.5750     2.6710     1.7240 ce         1 A2C       0.666800
     10 NAJ          4.2680     3.6880     2.0680 n2         1 A2C      -0.837600
     11 NAK         -6.0450    -0.0610    -2.7730 n2         1 A2C      -0.837600
     12 CAL         -3.9380    -0.5380    -0.9340 ca         1 A2C      -0.008500
     13 CAM         -3.0280    -0.9640     0.0290 ca         1 A2C      -0.268400
     14 CAN         -3.3030    -0.7390     1.3950 ca         1 A2C       0.201100
     15 OAO         -2.4650    -1.1280     2.3490 oh         1 A2C      -0.539600
     16 CAQ          4.6550     0.0080    -1.4570 ca         1 A2C       0.201100
     17 CAR          3.9820    -0.4940    -0.3350 ca         1 A2C      -0.268400
     18 CAS          3.6300     0.3860     0.6830 ca         1 A2C      -0.008500
     19 NAT          2.4460     2.3380     2.4150 nv         1 A2C      -1.051200
     20 CAU         -1.7990    -1.6250    -0.3860 ce         1 A2C       0.512300
     21 NAV         -0.9490    -2.0370     0.4650 n2         1 A2C      -0.634900
     22 CAW          0.2710    -2.6580     0.0170 c3         1 A2C       0.114300
     23 CAX          1.4690    -1.8350     0.4820 c3         1 A2C       0.114300
     24 NAY          2.6800    -2.5440     0.1490 n2         1 A2C      -0.634900
     25 CAZ          3.7280    -1.9460    -0.2320 ce         1 A2C       0.512300
     26 HNAA        -7.4550     1.9730    -2.0330 hn         1 A2C       0.463250
     27 HNAB        -6.5670     2.2490    -0.6320 hn         1 A2C       0.463250
     28 HAD         -6.2820     0.8180     1.0810 ha         1 A2C       0.120000
     29 HAE         -4.7120     0.0770     2.7910 ha         1 A2C       0.127000
     30 HAF          5.4450     1.7600    -2.4210 ha         1 A2C       0.127000
     31 HAG          4.8080     3.2750    -0.6150 ha         1 A2C       0.120000
     32 HNAJ         5.1280     3.7330     1.5350 hn         1 A2C       0.378400
     33 HNAK        -6.7030     0.3590    -3.4240 hn         1 A2C       0.378400
     34 HAL         -3.7170    -0.7150    -1.9800 ha         1 A2C       0.133000
     35 HOAO        -1.6850    -1.5670     1.9040 ho         1 A2C       0.500500
     36 HOAP         5.4700    -0.4240    -3.1290 ho         1 A2C       0.500500
     37 HAS          3.1560    -0.0100     1.5720 ha         1 A2C       0.133000
     38 HNAT         1.7030     1.8770     1.9170 hn         1 A2C       0.463250
     39 HNAC         2.1270     3.0150     3.0900 hn         1 A2C       0.463250
     40 HAU         -1.6430    -1.7480    -1.4620 h4         1 A2C       0.007300
     41 HAW          0.3390    -3.6560     0.4590 h1         1 A2C       0.054700
     42 HAWA         0.2960    -2.7720    -1.0730 h1         1 A2C       0.054700
     43 HAX          1.4080    -0.8280     0.0520 h1         1 A2C       0.054700
     44 HAXA         1.4100    -1.7230     1.5700 h1         1 A2C       0.054700
     45 HAZ          4.5660    -2.5870    -0.5070 h4         1 A2C       0.007300
     46 OAP          4.9790    -0.8620    -2.4230 oh         1 A2C      -0.539600
@<TRIPOS>BOND
     1     1     2 1   
     2     1    26 1   
     3     1    27 1   
     4     2     3 1   
     5     2    11 2   
     6     3     4 ar  
     7     3    12 ar  
     8     4     5 ar  
     9     4    28 1   
    10     5    14 ar  
    11     5    29 1   
    12     6     7 ar  
    13     6    16 ar  
    14     6    30 1   
    15     7     8 ar  
    16     7    31 1   
    17     8     9 1   
    18     8    18 ar  
    19     9    10 2   
    20     9    19 1   
    21    10    32 1   
    22    11    33 1   
    23    12    13 ar  
    24    12    34 1   
    25    13    14 ar  
    26    13    20 1   
    27    14    15 1   
    28    15    35 1   
    29    16    17 ar  
    30    16    46 1   
    31    17    18 ar  
    32    17    25 1   
    33    18    37 1   
    34    19    38 1   
    35    19    39 1   
    36    20    21 2   
    37    20    40 1   
    38    21    22 1   
    39    22    23 1   
    40    22    41 1   
    41    22    42 1   
    42    23    24 1   
    43    23    43 1   
    44    23    44 1   
    45    24    25 2   
    46    25    45 1   
    47    36    46 1   
@<TRIPOS>SUBSTRUCTURE
     1 A2C         1 TEMP              0 ****  ****    0 ROOT
