@<TRIPOS>MOLECULE
A2C
   46    47     1     0     0
SMALL
No Charge or Current Charge


@<TRIPOS>ATOM
      1 NAA         -6.7880     1.5360    -1.7290 nv         1 A2C      -1.051200
      2 CAB         -5.8630     0.5800    -1.9430 ce         1 A2C       0.666800
      3 CAC         -5.1320     0.0420    -0.7560 ca         1 A2C      -0.223900
      4 CAD         -5.7250     0.0340     0.5270 ca         1 A2C      -0.033000
      5 CAE         -5.0350    -0.5070     1.6220 ca         1 A2C      -0.201000
      6 CAF          4.7540     1.5340    -1.7440 ca         1 A2C      -0.201000
      7 CAG          4.7270     2.3240    -0.5850 ca         1 A2C      -0.033000
      8 CAH          4.2490     1.7900     0.6310 ca         1 A2C      -0.223900
      9 CAI          4.2570     2.6090     1.8770 ce         1 A2C       0.666800
     10 NAJ          5.0320     3.5950     2.0590 n2         1 A2C      -0.837600
     11 NAK         -5.5690     0.2730    -3.1380 n2         1 A2C      -0.837600
     12 CAL         -3.8540    -0.5420    -0.9140 ca         1 A2C      -0.008500
     13 CAM         -3.1540    -1.0890     0.1830 ca         1 A2C      -0.268400
     14 CAN         -3.7600    -1.0610     1.4570 ca         1 A2C       0.201100
     15 OAO         -3.1290    -1.5760     2.5440 oh         1 A2C      -0.539600
     16 CAQ          4.3250     0.2000    -1.7050 ca         1 A2C       0.201100
     17 CAR          3.8730    -0.3650    -0.5000 ca         1 A2C      -0.268400
     18 CAS          3.8380     0.4380     0.6640 ca         1 A2C      -0.008500
     19 NAT          3.2760     2.3990     2.7710 nv         1 A2C      -1.051200
     20 CAU         -1.8000    -1.6740    -0.0700 ce         1 A2C       0.512300
     21 NAV         -1.0850    -2.1860     0.8880 n2         1 A2C      -0.634900
     22 CAW          0.2420    -2.7570     0.6010 c3         1 A2C       0.114300
     23 CAX          1.3510    -1.6920     0.7710 c3         1 A2C       0.114300
     24 NAY          2.6770    -2.2680     0.4820 n2         1 A2C      -0.634900
     25 CAZ          3.4100    -1.7890    -0.4760 ce         1 A2C       0.512300
     26 HNAA        -6.9380     2.1800    -2.4970 hn         1 A2C       0.463250
     27 HNAB        -6.7580     1.9650    -0.8120 hn         1 A2C       0.463250
     28 HAD         -6.7240     0.4350     0.6830 ha         1 A2C       0.120000
     29 HAE         -5.4980    -0.5040     2.6050 ha         1 A2C       0.127000
     30 HAF          5.1110     1.9710    -2.6740 ha         1 A2C       0.127000
     31 HAG          5.0610     3.3580    -0.6440 ha         1 A2C       0.120000
     32 HNAJ         5.7380     3.5810     1.3130 hn         1 A2C       0.378400
     33 HNAK        -6.3310     0.5970    -3.7440 hn         1 A2C       0.378400
     34 HAL         -3.3940    -0.5630    -1.9010 ha         1 A2C       0.133000
     35 HOAO        -2.2590    -1.9130     2.2070 ho         1 A2C       0.500500
     36 HOAP         4.6940     0.0210    -3.5730 ho         1 A2C       0.500500
     37 HAS          3.5130     0.0020     1.6070 ha         1 A2C       0.133000
     38 HNAT         2.4380     1.9750     2.3950 hn         1 A2C       0.463250
     39 HNAC         3.1330     3.1690     3.4130 hn         1 A2C       0.463250
     40 HAU         -1.4320    -1.6420    -1.0980 h4         1 A2C       0.007300
     41 HAW          0.4480    -3.5900     1.2860 h1         1 A2C       0.054700
     42 HAWA         0.2860    -3.1600    -0.4200 h1         1 A2C       0.054700
     43 HAX          1.1320    -0.8460     0.1040 h1         1 A2C       0.054700
     44 HAXA         1.3180    -1.3120     1.8010 h1         1 A2C       0.054700
     45 HAZ          3.7830    -2.4500    -1.2610 h4         1 A2C       0.007300
     46 OAP          4.3500    -0.5420    -2.8470 oh         1 A2C      -0.539600
@<TRIPOS>BOND
     1     1     2 1   
     2     1    26 1   
     3     1    27 1   
     4     2     3 1   
     5     2    11 2   
     6     3     4 ar  
     7     3    12 ar  
     8     4     5 ar  
     9     4    28 1   
    10     5    14 ar  
    11     5    29 1   
    12     6     7 ar  
    13     6    16 ar  
    14     6    30 1   
    15     7     8 ar  
    16     7    31 1   
    17     8     9 1   
    18     8    18 ar  
    19     9    10 2   
    20     9    19 1   
    21    10    32 1   
    22    11    33 1   
    23    12    13 ar  
    24    12    34 1   
    25    13    14 ar  
    26    13    20 1   
    27    14    15 1   
    28    15    35 1   
    29    16    17 ar  
    30    16    46 1   
    31    17    18 ar  
    32    17    25 1   
    33    18    37 1   
    34    19    38 1   
    35    19    39 1   
    36    20    21 2   
    37    20    40 1   
    38    21    22 1   
    39    22    23 1   
    40    22    41 1   
    41    22    42 1   
    42    23    24 1   
    43    23    43 1   
    44    23    44 1   
    45    24    25 2   
    46    25    45 1   
    47    36    46 1   
@<TRIPOS>SUBSTRUCTURE
     1 A2C         1 TEMP              0 ****  ****    0 ROOT
