@<TRIPOS>MOLECULE
A2D
   69    74     1     0     0
SMALL
No Charge or Current Charge


@<TRIPOS>ATOM
      1 PA           6.4570     3.3640    -2.4390 p5         1 A2D       1.452300
      2 O1A          5.2140     3.5220    -1.6290 o          1 A2D      -0.831750
      3 O2A          7.6930     3.3960    -1.6040 o          1 A2D      -0.831750
      4 O3A          6.4780     2.1590    -3.4510 os         1 A2D      -0.742800
      5 PB           5.7470     0.8730    -2.9160 p5         1 A2D       1.452300
      6 O1B          6.2090     0.4020    -1.5780 o          1 A2D      -0.831750
      7 O2B          4.2630     0.9700    -3.0350 o          1 A2D      -0.831750
      8 O5D          6.5230     4.5220    -3.5560 os         1 A2D      -0.589900
      9 C5D          5.3500     4.7740    -4.3480 c3         1 A2D       0.220600
     10 C4D          5.7300     5.3250    -5.7660 c5         1 A2D       0.123300
     11 O4D          7.1150     5.0380    -6.1140 os         1 A2D      -0.413500
     12 C3D          4.8780     4.7050    -6.9270 c5         1 A2D       0.085800
     13 O3D          4.8220     5.5330    -8.1100 oh         1 A2D      -0.742500
     14 C2D          5.7060     3.4210    -7.2050 c5         1 A2D       0.132800
     15 O2D          5.3460     2.8990    -8.4910 oh         1 A2D      -0.712000
     16 C1D          7.1500     4.0270    -7.1470 c5         1 A2D       0.302300
     17 N9A          8.2800     3.1290    -6.9110 na         1 A2D      -0.294300
     18 C8A          8.2460     1.9380    -6.1790 cc         1 A2D       0.460700
     19 N7A          9.4630     1.3580    -6.1290 nd         1 A2D      -0.589100
     20 C5A         10.2610     2.2200    -6.8860 ca         1 A2D      -0.077600
     21 C6A         11.6340     2.1280    -7.2040 ca         1 A2D       0.427400
     22 N6A         12.4240     1.1080    -6.7740 nv         1 A2D      -1.055900
     23 N1A         12.2370     3.0670    -7.9510 nb         1 A2D      -0.314000
     24 C2A         11.4510     4.0860    -8.3760 ca         1 A2D       0.156400
     25 N3A         10.1300     4.2520    -8.1220 nb         1 A2D      -0.223500
     26 C4A          9.5570     3.2950    -7.3650 ca         1 A2D       0.110000
     27 O5E          6.3030    -0.0870    -4.0790 os         1 A2D      -0.589900
     28 C5E          7.5750    -0.7420    -3.9490 c3         1 A2D       0.220600
     29 C4E          7.3740    -2.2270    -3.5010 c5         1 A2D       0.123300
     30 O4E          6.1430    -2.7910    -4.0240 os         1 A2D      -0.413500
     31 C3E          8.5060    -3.2000    -4.0070 c5         1 A2D       0.085800
     32 O3E          9.0850    -3.9950    -2.9430 oh         1 A2D      -0.742500
     33 C2E          7.7660    -4.1400    -5.0350 c5         1 A2D       0.132800
     34 O2E          7.5550    -5.3960    -4.3780 oh         1 A2D      -0.712000
     35 C1E          6.4280    -3.3690    -5.3140 c5         1 A2D       0.302300
     36 N9B          6.3830    -2.3160    -6.3450 na         1 A2D      -0.294300
     37 C8B          5.2190    -1.6020    -6.6490 cc         1 A2D       0.460700
     38 N7B          5.4320    -0.6940    -7.6220 nd         1 A2D      -0.589100
     39 C5B          6.7810    -0.8710    -7.9390 ca         1 A2D      -0.077600
     40 C6B          7.5710    -0.1900    -8.8910 ca         1 A2D       0.427400
     41 N6B          7.1000     0.8320    -9.6530 nv         1 A2D      -1.055900
     42 N1B          8.8620    -0.5060    -9.0760 nb         1 A2D      -0.314000
     43 C2B          9.3480    -1.4960    -8.2900 ca         1 A2D       0.156400
     44 N3B          8.6680    -2.1920    -7.3470 nb         1 A2D      -0.223500
     45 C4B          7.3700    -1.8610    -7.1870 ca         1 A2D       0.110000
     46 HD1          4.7610     3.8550    -4.4720 h1         1 A2D       0.029700
     47 HD2          4.7020     5.5060    -3.8490 h1         1 A2D       0.029700
     48 H4D          5.6080     6.4160    -5.7290 h1         1 A2D       0.075700
     49 H3CA         3.8620     4.4560    -6.5860 h1         1 A2D       0.079200
     50 H3OA         4.3100     6.3490    -7.8840 ho         1 A2D       0.516000
     51 H2CA         5.5520     2.6730    -6.4130 h1         1 A2D       0.105700
     52 H2OA         4.9860     3.7000    -8.9520 ho         1 A2D       0.512000
     53 H1D          7.3580     4.5220    -8.1050 h2         1 A2D       0.088200
     54 H8A          7.3390     1.5590    -5.7250 h5         1 A2D       0.125300
     55 H6A1        13.4310     1.2450    -6.7850 hn         1 A2D       0.493250
     56 H6A2        12.0470     0.5090    -6.0450 hn         1 A2D       0.493250
     57 H2A         11.9300     4.8510    -8.9840 h5         1 A2D       0.025600
     58 HE1          8.1000    -0.7210    -4.9090 h1         1 A2D       0.029700
     59 HE2          8.2220    -0.2300    -3.2240 h1         1 A2D       0.029700
     60 H4E          7.3040    -2.2320    -2.4060 h1         1 A2D       0.075700
     61 H3CB         9.2920    -2.6310    -4.5270 h1         1 A2D       0.079200
     62 H3OB         9.7020    -3.4140    -2.4330 ho         1 A2D       0.516000
     63 H2CB         8.3490    -4.2900    -5.9530 h1         1 A2D       0.105700
     64 H2OB         8.1010    -5.2480    -3.5550 ho         1 A2D       0.512000
     65 H1E          5.6380    -4.0790    -5.5910 h2         1 A2D       0.088200
     66 H8B          4.2840    -1.7730    -6.1250 h5         1 A2D       0.125300
     67 H6B1         7.7930     1.4030   -10.1220 hn         1 A2D       0.493250
     68 H6B2         6.3080     1.3510    -9.2620 hn         1 A2D       0.493250
     69 H2B         10.3960    -1.7580    -8.4280 h5         1 A2D       0.025600
@<TRIPOS>BOND
     1     1     2 1   
     2     1     3 1   
     3     1     4 1   
     4     1     8 1   
     5     4     5 1   
     6     5     6 1   
     7     5     7 1   
     8     5    27 1   
     9     8     9 1   
    10     9    10 1   
    11     9    46 1   
    12     9    47 1   
    13    10    11 1   
    14    10    12 1   
    15    10    48 1   
    16    11    16 1   
    17    12    13 1   
    18    12    14 1   
    19    12    49 1   
    20    13    50 1   
    21    14    15 1   
    22    14    16 1   
    23    14    51 1   
    24    15    52 1   
    25    16    17 1   
    26    16    53 1   
    27    17    18 1   
    28    17    26 1   
    29    18    19 2   
    30    18    54 1   
    31    19    20 1   
    32    20    21 ar  
    33    20    26 ar  
    34    21    22 1   
    35    21    23 ar  
    36    22    55 1   
    37    22    56 1   
    38    23    24 ar  
    39    24    25 ar  
    40    24    57 1   
    41    25    26 ar  
    42    27    28 1   
    43    28    29 1   
    44    28    58 1   
    45    28    59 1   
    46    29    30 1   
    47    29    31 1   
    48    29    60 1   
    49    30    35 1   
    50    31    32 1   
    51    31    33 1   
    52    31    61 1   
    53    32    62 1   
    54    33    34 1   
    55    33    35 1   
    56    33    63 1   
    57    34    64 1   
    58    35    36 1   
    59    35    65 1   
    60    36    37 1   
    61    36    45 1   
    62    37    38 2   
    63    37    66 1   
    64    38    39 1   
    65    39    40 ar  
    66    39    45 ar  
    67    40    41 1   
    68    40    42 ar  
    69    41    67 1   
    70    41    68 1   
    71    42    43 ar  
    72    43    44 ar  
    73    43    69 1   
    74    44    45 ar  
@<TRIPOS>SUBSTRUCTURE
     1 A2D         1 TEMP              0 ****  ****    0 ROOT
