@<TRIPOS>MOLECULE
A2D
   69    74     1     0     0
SMALL
bcc


@<TRIPOS>ATOM
      1 PA           5.4090     3.2070    -2.0010 p5         1 A2D       1.452300
      2 O1A          4.0120     3.5780    -1.6170 o          1 A2D      -0.831750
      3 O2A          6.5510     3.3780    -1.0550 o          1 A2D      -0.831750
      4 O3A          5.3970     1.6950    -2.6500 os         1 A2D      -0.742800
      5 PB           4.7890     0.3690    -1.8840 p5         1 A2D       1.452300
      6 O1B          5.2810     0.3580    -0.4720 o          1 A2D      -0.831750
      7 O2B          3.3400     0.1980    -2.2030 o          1 A2D      -0.831750
      8 O5D          5.8650     4.0220    -3.3550 os         1 A2D      -0.566700
      9 C5D          5.0890     3.9800    -4.5260 c3         1 A2D       0.197400
     10 C4D          5.6490     4.9960    -5.5110 c5         1 A2D       0.100100
     11 O4D          7.0670     4.8780    -5.6490 os         1 A2D      -0.367100
     12 C3D          5.1020     4.7840    -6.9160 c5         1 A2D       0.062600
     13 O3D          5.2690     5.9150    -7.7330 oh         1 A2D      -0.620300
     14 C2D          6.0660     3.7200    -7.4410 c5         1 A2D       0.109600
     15 O2D          6.1060     3.5860    -8.8270 oh         1 A2D      -0.589800
     16 C1D          7.3990     4.1610    -6.7980 c5         1 A2D       0.249800
     17 N9A          8.2550     3.0510    -6.4220 na         1 A2D      -0.265000
     18 C8A          8.2460     2.3570    -5.2440 cc         1 A2D       0.460700
     19 N7A          9.1080     1.3810    -5.2160 nd         1 A2D      -0.589100
     20 C5A          9.7110     1.4200    -6.4440 ca         1 A2D      -0.208200
     21 C6A         10.7220     0.6470    -7.0380 ca         1 A2D       0.755700
     22 N6A         11.3160    -0.3780    -6.4110 nv         1 A2D      -0.945500
     23 N1A         11.0870     0.9460    -8.2870 nb         1 A2D      -0.840000
     24 C2A         10.4990     1.9680    -8.9070 ca         1 A2D       0.682400
     25 N3A          9.5600     2.7760    -8.4480 nb         1 A2D      -0.749500
     26 C4A          9.1940     2.4540    -7.2110 ca         1 A2D       0.438300
     27 O5E          5.5580    -0.7800    -2.7700 os         1 A2D      -0.566700
     28 C5E          6.9540    -0.7410    -2.9440 c3         1 A2D       0.197400
     29 C4E          7.4320    -2.0630    -3.5050 c5         1 A2D       0.100100
     30 O4E          6.6460    -2.4330    -4.6420 os         1 A2D      -0.367100
     31 C3E          8.8790    -1.9790    -4.0170 c5         1 A2D       0.062600
     32 O3E          9.8530    -2.4160    -3.1100 oh         1 A2D      -0.620300
     33 C2E          8.8530    -2.8980    -5.2360 c5         1 A2D       0.109600
     34 O2E          8.9090    -4.2510    -4.8700 oh         1 A2D      -0.589800
     35 C1E          7.4420    -2.6530    -5.7570 c5         1 A2D       0.249800
     36 N9B          7.3670    -1.4860    -6.6380 na         1 A2D      -0.265000
     37 C8B          6.5540    -0.3940    -6.4930 cc         1 A2D       0.460700
     38 N7B          6.5640     0.3990    -7.5230 nd         1 A2D      -0.589100
     39 C5B          7.4200    -0.2000    -8.4090 ca         1 A2D      -0.208200
     40 C6B          7.8320     0.1300    -9.7130 ca         1 A2D       0.755700
     41 N6B          7.3840     1.2110   -10.3630 nv         1 A2D      -0.945500
     42 N1B          8.6740    -0.7070   -10.3310 nb         1 A2D      -0.840000
     43 C2B          9.0810    -1.8030    -9.6980 ca         1 A2D       0.682400
     44 N3B          8.7600    -2.2200    -8.4860 nb         1 A2D      -0.749500
     45 C4B          7.9250    -1.3780    -7.8800 ca         1 A2D       0.438300
     46 HD1          5.0930     2.9710    -4.9580 h1         1 A2D       0.029700
     47 HD2          4.0410     4.2380    -4.3300 h1         1 A2D       0.029700
     48 H4D          5.4430     6.0050    -5.1400 h1         1 A2D       0.075700
     49 H3CA         4.0630     4.4330    -6.9070 h1         1 A2D       0.079200
     50 H3OA         4.6300     6.5890    -7.4800 ho         1 A2D       0.417000
     51 H2CA         5.7920     2.7390    -7.0490 h1         1 A2D       0.105700
     52 H2OA         6.2070     4.4580    -9.2260 ho         1 A2D       0.413000
     53 H1D          7.9810     4.7770    -7.4920 h2         1 A2D       0.088200
     54 H8A          7.5970     2.6270    -4.4250 h5         1 A2D       0.125300
     55 H6A1        12.1170    -0.8110    -6.8380 hn         1 A2D       0.438050
     56 H6A2        11.2200    -0.4820    -5.4160 hn         1 A2D       0.438050
     57 H2A         10.8440     2.1600    -9.9170 h5         1 A2D       0.025600
     58 HE1          7.2320     0.0660    -3.6300 h1         1 A2D       0.029700
     59 HE2          7.4820    -0.5560    -2.0000 h1         1 A2D       0.029700
     60 H4E          7.3340    -2.8530    -2.7520 h1         1 A2D       0.075700
     61 H3CB         9.0780    -0.9540    -4.3560 h1         1 A2D       0.079200
     62 H3OB        10.0010    -1.7350    -2.4480 ho         1 A2D       0.417000
     63 H2CB         9.6220    -2.6420    -5.9730 h1         1 A2D       0.105700
     64 H2OB         9.6600    -4.3760    -4.2800 ho         1 A2D       0.413000
     65 H1E          7.0650    -3.5130    -6.3180 h2         1 A2D       0.088200
     66 H8B          5.9590    -0.2370    -5.6070 h5         1 A2D       0.125300
     67 H6B1         7.8470     1.4680   -11.2190 hn         1 A2D       0.438050
     68 H6B2         6.9590     1.9650    -9.8390 hn         1 A2D       0.438050
     69 H2B          9.7640    -2.4350   -10.2550 h5         1 A2D       0.025600
@<TRIPOS>BOND
     1     1     2 1   
     2     1     3 1   
     3     1     4 1   
     4     1     8 1   
     5     4     5 1   
     6     5     6 1   
     7     5     7 1   
     8     5    27 1   
     9     8     9 1   
    10     9    10 1   
    11     9    46 1   
    12     9    47 1   
    13    10    11 1   
    14    10    12 1   
    15    10    48 1   
    16    11    16 1   
    17    12    13 1   
    18    12    14 1   
    19    12    49 1   
    20    13    50 1   
    21    14    15 1   
    22    14    16 1   
    23    14    51 1   
    24    15    52 1   
    25    16    17 1   
    26    16    53 1   
    27    17    18 1   
    28    17    26 1   
    29    18    19 2   
    30    18    54 1   
    31    19    20 1   
    32    20    21 ar  
    33    20    26 ar  
    34    21    22 1   
    35    21    23 ar  
    36    22    55 1   
    37    22    56 1   
    38    23    24 ar  
    39    24    25 ar  
    40    24    57 1   
    41    25    26 ar  
    42    27    28 1   
    43    28    29 1   
    44    28    58 1   
    45    28    59 1   
    46    29    30 1   
    47    29    31 1   
    48    29    60 1   
    49    30    35 1   
    50    31    32 1   
    51    31    33 1   
    52    31    61 1   
    53    32    62 1   
    54    33    34 1   
    55    33    35 1   
    56    33    63 1   
    57    34    64 1   
    58    35    36 1   
    59    35    65 1   
    60    36    37 1   
    61    36    45 1   
    62    37    38 2   
    63    37    66 1   
    64    38    39 1   
    65    39    40 ar  
    66    39    45 ar  
    67    40    41 1   
    68    40    42 ar  
    69    41    67 1   
    70    41    68 1   
    71    42    43 ar  
    72    43    44 ar  
    73    43    69 1   
    74    44    45 ar  
@<TRIPOS>SUBSTRUCTURE
     1 A2D         1 TEMP              0 ****  ****    0 ROOT
