@<TRIPOS>MOLECULE
A2E
   81    85     1     0     0
SMALL
No Charge or Current Charge


@<TRIPOS>ATOM
      1 O11         12.8540    -1.8110     2.3440 o          1 A2E      -0.565000
      2 C9          11.9430    -1.4080     1.6400 c          1 A2E       0.554200
      3 C8          10.6940    -2.1390     1.4140 cc         1 A2E      -0.322200
      4 N10         12.0060    -0.2170     0.9750 ns         1 A2E      -0.364100
      5 C5          11.0140     0.2980     0.1630 cc         1 A2E       0.085400
      6 C6          11.3480     1.6210    -0.4890 c6         1 A2E      -0.052200
      7 C4           9.8150    -0.3790    -0.0290 cd         1 A2E      -0.190200
      8 C7           9.6660    -1.6680     0.6170 cd         1 A2E      -0.083000
      9 C3           8.7120     0.1680    -0.9330 c6         1 A2E       0.245700
     10 C2           8.9790     1.6340    -1.3760 c6         1 A2E      -0.078400
     11 C1          10.4620     1.8640    -1.7300 c6         1 A2E      -0.068400
     12 N12          7.4090     0.0620    -0.2480 n7         1 A2E      -0.858400
     13 C13          6.1960     0.2870    -1.0560 c3         1 A2E       0.154800
     14 C14          4.9380     0.0910    -0.1880 c3         1 A2E      -0.081400
     15 C15          3.6270     0.3140    -0.9730 c3         1 A2E      -0.073400
     16 C16          2.3620     0.1190    -0.1080 c3         1 A2E      -0.074400
     17 C17          1.0520     0.3430    -0.8940 c3         1 A2E      -0.074400
     18 C18         -0.2130     0.1480    -0.0290 c3         1 A2E      -0.074400
     19 C19         -1.5230     0.3730    -0.8150 c3         1 A2E      -0.073400
     20 C20         -2.7880     0.1770     0.0500 c3         1 A2E      -0.075400
     21 C21         -4.0990     0.4020    -0.7350 c3         1 A2E      -0.080400
     22 C22         -5.3560     0.2030     0.1330 c3         1 A2E       0.175800
     23 N23         -6.5710     0.4250    -0.6630 nu         1 A2E      -0.915200
     24 C24         -7.8650     0.2070    -0.1660 ca         1 A2E       0.277000
     25 C25         -8.4310    -1.0860    -0.1810 ca         1 A2E      -0.118300
     26 C30         -7.6780    -2.2930    -0.7830 c6         1 A2E      -0.018100
     27 C26         -9.7460    -1.2340     0.3070 ca         1 A2E       0.386300
     28 C33        -10.4650    -2.5860     0.3260 c6         1 A2E      -0.132700
     29 C32         -9.8380    -3.6240    -0.6300 c6         1 A2E      -0.074400
     30 C31         -8.3110    -3.6620    -0.4410 c6         1 A2E      -0.078400
     31 N27        -10.4750    -0.2110     0.7980 nb         1 A2E      -0.683000
     32 C28         -9.9400     1.0270     0.8140 ca         1 A2E       0.284000
     33 C34        -10.7080     2.0930     1.3210 ca         1 A2E      -0.082000
     34 C29         -8.6320     1.2860     0.3350 ca         1 A2E      -0.111000
     35 C37         -8.1220     2.6090     0.3790 ca         1 A2E      -0.100000
     36 C36         -8.9040     3.6580     0.8880 ca         1 A2E      -0.108000
     37 C35        -10.1990     3.4010     1.3590 ca         1 A2E      -0.105000
     38 H8          10.6260    -3.0960     1.9200 ha         1 A2E       0.208000
     39 H10         12.8630     0.3050     1.1060 hn         1 A2E       0.322500
     40 H61         11.2000     2.4380     0.2300 hc         1 A2E       0.060700
     41 H62         12.4050     1.6620    -0.7870 hc         1 A2E       0.060700
     42 H7           8.7690    -2.2670     0.4790 ha         1 A2E       0.177000
     43 H3           8.6840    -0.4610    -1.8350 h1         1 A2E       0.024700
     44 H21          8.3510     1.8830    -2.2420 hc         1 A2E       0.054700
     45 H22          8.6900     2.3260    -0.5720 hc         1 A2E       0.054700
     46 H11         10.7600     1.1870    -2.5420 hc         1 A2E       0.049200
     47 H12A        10.6100     2.8880    -2.1010 hc         1 A2E       0.049200
     48 H12          7.3430    -0.8780     0.1490 hn         1 A2E       0.409000
     49 H131         6.1870     1.3060    -1.4670 h1         1 A2E       0.028700
     50 H132         6.1640    -0.4170    -1.8990 h1         1 A2E       0.028700
     51 H141         4.9390    -0.9250     0.2270 hc         1 A2E       0.045700
     52 H142         4.9730     0.7870     0.6590 hc         1 A2E       0.045700
     53 H151         3.6250     1.3290    -1.3890 hc         1 A2E       0.037700
     54 H152         3.5930    -0.3800    -1.8230 hc         1 A2E       0.037700
     55 H161         2.3630    -0.8970     0.3070 hc         1 A2E       0.038700
     56 H162         2.3960     0.8130     0.7410 hc         1 A2E       0.038700
     57 H171         1.0500     1.3590    -1.3100 hc         1 A2E       0.037700
     58 H172         1.0180    -0.3500    -1.7440 hc         1 A2E       0.037700
     59 H181        -0.2120    -0.8680     0.3860 hc         1 A2E       0.037700
     60 H182        -0.1790     0.8420     0.8200 hc         1 A2E       0.037700
     61 H191        -1.5250     1.3890    -1.2300 hc         1 A2E       0.038700
     62 H192        -1.5570    -0.3200    -1.6650 hc         1 A2E       0.038700
     63 H201        -2.7870    -0.8390     0.4650 hc         1 A2E       0.038700
     64 H202        -2.7540     0.8710     0.9000 hc         1 A2E       0.038700
     65 H211        -4.1010     1.4180    -1.1490 hc         1 A2E       0.046700
     66 H212        -4.1340    -0.2930    -1.5830 hc         1 A2E       0.046700
     67 H221        -5.3500    -0.8130     0.5490 h1         1 A2E       0.037200
     68 H222        -5.3330     0.9070     0.9760 h1         1 A2E       0.037200
     69 H23         -6.5190     1.2610    -1.2440 hn         1 A2E       0.432000
     70 H301        -7.6490    -2.1750    -1.8750 hc         1 A2E       0.055700
     71 H302        -6.6330    -2.3070    -0.4540 hc         1 A2E       0.055700
     72 H331       -11.5260    -2.4540     0.0710 hc         1 A2E       0.062200
     73 H332       -10.4430    -2.9780     1.3510 hc         1 A2E       0.062200
     74 H321       -10.0780    -3.3680    -1.6720 hc         1 A2E       0.045700
     75 H322       -10.2700    -4.6170    -0.4420 hc         1 A2E       0.045700
     76 H311        -7.8690    -4.4440    -1.0740 hc         1 A2E       0.041700
     77 H312        -8.0740    -3.9300     0.5980 hc         1 A2E       0.041700
     78 H34        -11.7120     1.9000     1.6890 ha         1 A2E       0.130000
     79 H37         -7.1200     2.8390     0.0270 ha         1 A2E       0.106000
     80 H36         -8.5050     4.6690     0.9180 ha         1 A2E       0.114000
     81 H35        -10.8070     4.2120     1.7540 ha         1 A2E       0.116000
@<TRIPOS>BOND
     1     1     2 2   
     2     2     3 1   
     3     2     4 1   
     4     3     8 2   
     5     3    38 1   
     6     4     5 1   
     7     4    39 1   
     8     5     6 1   
     9     5     7 2   
    10     6    11 1   
    11     6    40 1   
    12     6    41 1   
    13     7     8 1   
    14     7     9 1   
    15     8    42 1   
    16     9    10 1   
    17     9    12 1   
    18     9    43 1   
    19    10    11 1   
    20    10    44 1   
    21    10    45 1   
    22    11    46 1   
    23    11    47 1   
    24    12    13 1   
    25    12    48 1   
    26    13    14 1   
    27    13    49 1   
    28    13    50 1   
    29    14    15 1   
    30    14    51 1   
    31    14    52 1   
    32    15    16 1   
    33    15    53 1   
    34    15    54 1   
    35    16    17 1   
    36    16    55 1   
    37    16    56 1   
    38    17    18 1   
    39    17    57 1   
    40    17    58 1   
    41    18    19 1   
    42    18    59 1   
    43    18    60 1   
    44    19    20 1   
    45    19    61 1   
    46    19    62 1   
    47    20    21 1   
    48    20    63 1   
    49    20    64 1   
    50    21    22 1   
    51    21    65 1   
    52    21    66 1   
    53    22    23 1   
    54    22    67 1   
    55    22    68 1   
    56    23    24 1   
    57    23    69 1   
    58    24    25 ar  
    59    24    34 ar  
    60    25    26 1   
    61    25    27 ar  
    62    26    30 1   
    63    26    70 1   
    64    26    71 1   
    65    27    28 1   
    66    27    31 ar  
    67    28    29 1   
    68    28    72 1   
    69    28    73 1   
    70    29    30 1   
    71    29    74 1   
    72    29    75 1   
    73    30    76 1   
    74    30    77 1   
    75    31    32 ar  
    76    32    33 ar  
    77    32    34 ar  
    78    33    37 ar  
    79    33    78 1   
    80    34    35 ar  
    81    35    36 ar  
    82    35    79 1   
    83    36    37 ar  
    84    36    80 1   
    85    37    81 1   
@<TRIPOS>SUBSTRUCTURE
     1 A2E         1 TEMP              0 ****  ****    0 ROOT
