@<TRIPOS>MOLECULE
A2E
   81    85     1     0     0
SMALL
bcc


@<TRIPOS>ATOM
      1 O11         12.6460    -1.7730     2.4760 o          1 A2E      -0.640500
      2 C9          11.7040    -1.4350     1.7610 c          1 A2E       0.696700
      3 C8          10.4440    -2.1120     1.6430 cc         1 A2E      -0.272200
      4 N10         11.7980    -0.3200     0.9540 ns         1 A2E      -0.431100
      5 C5          10.8350     0.1730     0.1320 cc         1 A2E       0.085400
      6 C6          11.2000     1.3830    -0.6690 c6         1 A2E      -0.052200
      7 C4           9.6210    -0.4490     0.0580 cd         1 A2E      -0.190200
      8 C7           9.4690    -1.6330     0.8270 cd         1 A2E      -0.033000
      9 C3           8.5020     0.0530    -0.8330 c6         1 A2E       0.245700
     10 C2           8.8210     1.4330    -1.4060 c6         1 A2E      -0.078400
     11 C1          10.2680     1.5420    -1.8590 c6         1 A2E      -0.068400
     12 N12          7.2530     0.1060    -0.0780 n7         1 A2E      -0.803200
     13 C13          6.0780     0.3160    -0.9090 c3         1 A2E       0.154800
     14 C14          4.8030     0.1850    -0.0920 c3         1 A2E      -0.081400
     15 C15          3.5450     0.3820    -0.9260 c3         1 A2E      -0.073400
     16 C16          2.2650     0.2530    -0.1110 c3         1 A2E      -0.074400
     17 C17          1.0000     0.4390    -0.9390 c3         1 A2E      -0.074400
     18 C18         -0.2770     0.3060    -0.1200 c3         1 A2E      -0.074400
     19 C19         -1.5460     0.4880    -0.9430 c3         1 A2E      -0.073400
     20 C20         -2.8170     0.3510    -0.1150 c3         1 A2E      -0.075400
     21 C21         -4.0890     0.5310    -0.9330 c3         1 A2E      -0.080400
     22 C22         -5.3380     0.3870    -0.0830 c3         1 A2E       0.175800
     23 N23         -6.5480     0.5950    -0.8810 nu         1 A2E      -0.721600
     24 C24         -7.7560     0.2700    -0.2480 ca         1 A2E       0.138600
     25 C25         -8.1920    -1.0410    -0.2400 ca         1 A2E      -0.183600
     26 C30         -7.4200    -2.1130    -0.9700 c6         1 A2E      -0.018100
     27 C26         -9.4330    -1.3300     0.3880 ca         1 A2E       0.451600
     28 C33         -9.9540    -2.7430     0.4430 c6         1 A2E      -0.132700
     29 C32         -9.3770    -3.6410    -0.6400 c6         1 A2E      -0.074400
     30 C31         -7.8610    -3.5310    -0.6320 c6         1 A2E      -0.078400
     31 N27        -10.1910    -0.4190     0.9480 nb         1 A2E      -0.683000
     32 C28         -9.7790     0.8660     0.9560 ca         1 A2E       0.414600
     33 C34        -10.6060     1.8340     1.5730 ca         1 A2E      -0.165300
     34 C29         -8.5510     1.2700     0.3810 ca         1 A2E      -0.176300
     35 C37         -8.1700     2.6300     0.4720 ca         1 A2E      -0.118000
     36 C36         -8.9840     3.5450     1.0830 ca         1 A2E      -0.126000
     37 C35        -10.2190     3.1440     1.6330 ca         1 A2E      -0.123000
     38 H8          10.2980    -3.0190     2.2130 ha         1 A2E       0.158000
     39 H10         12.6870     0.1650     0.9760 hn         1 A2E       0.322500
     40 H61         11.1440     2.2670    -0.0250 hc         1 A2E       0.060700
     41 H62         12.2400     1.3050    -0.9950 hc         1 A2E       0.060700
     42 H7           8.5450    -2.1970     0.7620 ha         1 A2E       0.127000
     43 H3           8.4160    -0.6520    -1.6790 h1         1 A2E       0.024700
     44 H21          8.1530     1.6520    -2.2400 hc         1 A2E       0.054700
     45 H22          8.6230     2.1820    -0.6320 hc         1 A2E       0.054700
     46 H11         10.4870     0.7730    -2.6050 hc         1 A2E       0.049200
     47 H12A        10.4440     2.5060    -2.3360 hc         1 A2E       0.049200
     48 H12          7.1200    -0.7750     0.4040 hn         1 A2E       0.353800
     49 H131         6.1170     1.3180    -1.3440 h1         1 A2E       0.028700
     50 H132         6.0420    -0.3870    -1.7600 h1         1 A2E       0.028700
     51 H141         4.7740    -0.8050     0.3790 hc         1 A2E       0.045700
     52 H142         4.8240     0.9140     0.7250 hc         1 A2E       0.045700
     53 H151         3.5730     1.3680    -1.4030 hc         1 A2E       0.037700
     54 H152         3.5300    -0.3490    -1.7420 hc         1 A2E       0.037700
     55 H161         2.2410    -0.7300     0.3730 hc         1 A2E       0.038700
     56 H162         2.2770     0.9890     0.7020 hc         1 A2E       0.038700
     57 H171         1.0220     1.4230    -1.4210 hc         1 A2E       0.037700
     58 H172         0.9880    -0.2960    -1.7520 hc         1 A2E       0.037700
     59 H181        -0.2960    -0.6770     0.3640 hc         1 A2E       0.037700
     60 H182        -0.2640     1.0420     0.6930 hc         1 A2E       0.037700
     61 H191        -1.5300     1.4720    -1.4250 hc         1 A2E       0.038700
     62 H192        -1.5600    -0.2480    -1.7550 hc         1 A2E       0.038700
     63 H201        -2.8300    -0.6330     0.3660 hc         1 A2E       0.038700
     64 H202        -2.7990     1.0860     0.6980 hc         1 A2E       0.038700
     65 H211        -4.0810     1.5180    -1.4080 hc         1 A2E       0.046700
     66 H212        -4.1190    -0.2040    -1.7430 hc         1 A2E       0.046700
     67 H221        -5.3700    -0.6130     0.3520 h1         1 A2E       0.037200
     68 H222        -5.2960     1.0870     0.7630 h1         1 A2E       0.037200
     69 H23         -6.5620     1.5440    -1.2300 hn         1 A2E       0.376800
     70 H301        -7.5420    -1.9400    -2.0450 hc         1 A2E       0.055700
     71 H302        -6.3510    -2.0160    -0.7830 hc         1 A2E       0.055700
     72 H331       -11.0440    -2.7150     0.4020 hc         1 A2E       0.062200
     73 H332        -9.6960    -3.1590     1.4230 hc         1 A2E       0.062200
     74 H321        -9.7660    -3.3480    -1.6200 hc         1 A2E       0.045700
     75 H322        -9.6940    -4.6720    -0.4700 hc         1 A2E       0.045700
     76 H311        -7.4140    -4.2250    -1.3460 hc         1 A2E       0.041700
     77 H312        -7.4850    -3.8110     0.3560 hc         1 A2E       0.041700
     78 H34        -11.5470     1.5080     1.9980 ha         1 A2E       0.148000
     79 H37         -7.2210     2.9600     0.0690 ha         1 A2E       0.124000
     80 H36         -8.6780     4.5810     1.1500 ha         1 A2E       0.132000
     81 H35        -10.8560     3.8780     2.1090 ha         1 A2E       0.134000
@<TRIPOS>BOND
     1     1     2 2   
     2     2     3 1   
     3     2     4 1   
     4     3     8 2   
     5     3    38 1   
     6     4     5 1   
     7     4    39 1   
     8     5     6 1   
     9     5     7 2   
    10     6    11 1   
    11     6    40 1   
    12     6    41 1   
    13     7     8 1   
    14     7     9 1   
    15     8    42 1   
    16     9    10 1   
    17     9    12 1   
    18     9    43 1   
    19    10    11 1   
    20    10    44 1   
    21    10    45 1   
    22    11    46 1   
    23    11    47 1   
    24    12    13 1   
    25    12    48 1   
    26    13    14 1   
    27    13    49 1   
    28    13    50 1   
    29    14    15 1   
    30    14    51 1   
    31    14    52 1   
    32    15    16 1   
    33    15    53 1   
    34    15    54 1   
    35    16    17 1   
    36    16    55 1   
    37    16    56 1   
    38    17    18 1   
    39    17    57 1   
    40    17    58 1   
    41    18    19 1   
    42    18    59 1   
    43    18    60 1   
    44    19    20 1   
    45    19    61 1   
    46    19    62 1   
    47    20    21 1   
    48    20    63 1   
    49    20    64 1   
    50    21    22 1   
    51    21    65 1   
    52    21    66 1   
    53    22    23 1   
    54    22    67 1   
    55    22    68 1   
    56    23    24 1   
    57    23    69 1   
    58    24    25 ar  
    59    24    34 ar  
    60    25    26 1   
    61    25    27 ar  
    62    26    30 1   
    63    26    70 1   
    64    26    71 1   
    65    27    28 1   
    66    27    31 ar  
    67    28    29 1   
    68    28    72 1   
    69    28    73 1   
    70    29    30 1   
    71    29    74 1   
    72    29    75 1   
    73    30    76 1   
    74    30    77 1   
    75    31    32 ar  
    76    32    33 ar  
    77    32    34 ar  
    78    33    37 ar  
    79    33    78 1   
    80    34    35 ar  
    81    35    36 ar  
    82    35    79 1   
    83    36    37 ar  
    84    36    80 1   
    85    37    81 1   
@<TRIPOS>SUBSTRUCTURE
     1 A2E         1 TEMP              0 ****  ****    0 ROOT
