@<TRIPOS>MOLECULE
A2F
   15    16     1     0     0
SMALL
abcg2


@<TRIPOS>ATOM
      1 F           -2.8730     0.7560    -0.0370 f          1 A2F      -0.201200
      2 C2          -1.5980     0.3900    -0.0380 ca         1 A2F       0.382200
      3 N3          -0.7400     1.3630    -0.0240 nb         1 A2F      -0.179000
      4 N1          -1.4170    -0.9150    -0.0430 nb         1 A2F      -0.298000
      5 C6          -0.1710    -1.3710    -0.0360 ca         1 A2F       0.431900
      6 N6           0.0150    -2.7080    -0.0610 nv         1 A2F      -1.060900
      7 C5           0.8620    -0.4270    -0.0380 ca         1 A2F      -0.276200
      8 C4           0.5250     0.9260    -0.0250 ca         1 A2F       0.280000
      9 N7           2.2360    -0.4490    -0.0380 na         1 A2F      -0.294600
     10 C8           2.6310     0.8460    -0.0260 cc         1 A2F       0.441700
     11 N9           1.6450     1.6970    -0.0150 nd         1 A2F      -0.635700
     12 HN6         -0.7990    -3.2770     0.0970 hn         1 A2F       0.489000
     13 HN6A         0.8860    -3.1060     0.2390 hn         1 A2F       0.489000
     14 H8           3.6770     1.1130    -0.0270 h5         1 A2F       0.069800
     15 HN7          2.8480    -1.2440    -0.0780 hn         1 A2F       0.361000
@<TRIPOS>BOND
     1     1     2 1   
     2     2     3 ar  
     3     2     4 ar  
     4     3     8 ar  
     5     4     5 ar  
     6     5     6 1   
     7     5     7 ar  
     8     6    12 1   
     9     6    13 1   
    10     7     8 ar  
    11     7     9 1   
    12     8    11 1   
    13     9    10 1   
    14     9    15 1   
    15    10    11 2   
    16    10    14 1   
@<TRIPOS>SUBSTRUCTURE
     1 A2F         1 TEMP              0 ****  ****    0 ROOT
