@<TRIPOS>MOLECULE
A2F
   15    16     1     0     0
SMALL
No Charge or Current Charge


@<TRIPOS>ATOM
      1 F           -2.9740     0.7660    -0.0380 f          1 A2F      -0.201200
      2 C2          -1.6810     0.3750    -0.0380 ca         1 A2F       0.382200
      3 N3          -0.7590     1.3660    -0.0210 nb         1 A2F      -0.179000
      4 N1          -1.4660    -0.9620    -0.0540 nb         1 A2F      -0.298000
      5 C6          -0.1820    -1.3350    -0.0540 ca         1 A2F       0.431900
      6 N6           0.0610    -2.6690    -0.0630 nv         1 A2F      -1.060900
      7 C5           0.8340    -0.3760    -0.0380 ca         1 A2F      -0.276200
      8 C4           0.5210     0.9560    -0.0220 ca         1 A2F       0.280000
      9 N7           2.2000    -0.4800    -0.0410 na         1 A2F      -0.294600
     10 C8           2.6980     0.8180    -0.0220 cc         1 A2F       0.441700
     11 N9           1.6900     1.7170    -0.0100 nd         1 A2F      -0.635700
     12 HN6         -0.7190    -3.2930     0.1260 hn         1 A2F       0.489000
     13 HN6A         0.9800    -3.0010     0.2150 hn         1 A2F       0.489000
     14 H8           3.7600     1.0360    -0.0210 h5         1 A2F       0.069800
     15 HN7          2.7630    -1.3230    -0.0690 hn         1 A2F       0.361000
@<TRIPOS>BOND
     1     1     2 1   
     2     2     3 ar  
     3     2     4 ar  
     4     3     8 ar  
     5     4     5 ar  
     6     5     6 1   
     7     5     7 ar  
     8     6    12 1   
     9     6    13 1   
    10     7     8 ar  
    11     7     9 1   
    12     8    11 1   
    13     9    10 1   
    14     9    15 1   
    15    10    11 2   
    16    10    14 1   
@<TRIPOS>SUBSTRUCTURE
     1 A2F         1 TEMP              0 ****  ****    0 ROOT
