@<TRIPOS>MOLECULE
A2G
   30    30     1     0     0
SMALL
abcg2


@<TRIPOS>ATOM
      1 O5          -5.2520    11.7070    77.5270 os         1 A2G      -0.431000
      2 C1          -5.5580    10.4250    77.1030 c6         1 A2G       0.387300
      3 O1          -6.9470    10.3380    76.9360 oh         1 A2G      -0.697000
      4 C2          -5.0260     9.3660    78.0860 c6         1 A2G       0.048700
      5 N2          -5.4240     8.0410    77.6710 ns         1 A2G      -0.510900
      6 C3          -5.5060     9.6710    79.5000 c6         1 A2G       0.166300
      7 O3          -4.9660     8.7070    80.3640 oh         1 A2G      -0.636000
      8 C4          -5.1110    11.1000    79.8760 c6         1 A2G       0.117300
      9 O4          -3.7080    11.1740    79.9520 oh         1 A2G      -0.697000
     10 C5          -5.6910    12.0550    78.8310 c6         1 A2G       0.140300
     11 C6          -5.2730    13.5040    79.0210 c3         1 A2G       0.157600
     12 O6          -5.6490    13.8980    80.3190 oh         1 A2G      -0.733000
     13 C7          -4.6530     7.2440    76.9030 c          1 A2G       0.603100
     14 O7          -3.5720     7.5970    76.4570 o          1 A2G      -0.595100
     15 C8          -5.2180     5.8730    76.6280 c3         1 A2G      -0.180100
     16 H1          -5.0440    10.2980    76.1410 h2         1 A2G       0.084700
     17 HO1         -7.1600     9.4800    76.5520 ho         1 A2G       0.462000
     18 H2          -3.9360     9.4130    78.0600 h1         1 A2G       0.123700
     19 HN2         -6.2860     7.6660    78.0350 hn         1 A2G       0.311500
     20 H3          -6.6050     9.6320    79.5130 h1         1 A2G       0.036700
     21 HO3         -5.3730     8.8130    81.2300 ho         1 A2G       0.443000
     22 H4          -5.5740    11.3340    80.8440 h1         1 A2G       0.049700
     23 HO4         -3.4690    11.9350    80.4890 ho         1 A2G       0.507000
     24 H5          -6.7860    11.9980    78.9000 h1         1 A2G       0.065700
     25 H61         -4.1920    13.5970    78.8590 h1         1 A2G       0.040700
     26 H81         -5.2700     5.7120    75.5520 hc         1 A2G       0.060700
     27 H82         -4.5450     5.1190    77.0360 hc         1 A2G       0.060700
     28 H83         -6.2090     5.7140    77.0490 hc         1 A2G       0.060700
     29 H62         -5.7640    14.1130    78.2520 h1         1 A2G       0.040700
     30 HO6         -5.3570    14.8030    80.4580 ho         1 A2G       0.512000
@<TRIPOS>BOND
     1     1     2 1   
     2     1    10 1   
     3     2     3 1   
     4     2     4 1   
     5     2    16 1   
     6     3    17 1   
     7     4     5 1   
     8     4     6 1   
     9     4    18 1   
    10     5    13 1   
    11     5    19 1   
    12     6     7 1   
    13     6     8 1   
    14     6    20 1   
    15     7    21 1   
    16     8     9 1   
    17     8    10 1   
    18     8    22 1   
    19     9    23 1   
    20    10    11 1   
    21    10    24 1   
    22    11    12 1   
    23    11    25 1   
    24    11    29 1   
    25    12    30 1   
    26    13    14 2   
    27    13    15 1   
    28    15    26 1   
    29    15    27 1   
    30    15    28 1   
@<TRIPOS>SUBSTRUCTURE
     1 A2G         1 TEMP              0 ****  ****    0 ROOT
