@<TRIPOS>MOLECULE
A2G
   30    30     1     0     0
SMALL
No Charge or Current Charge


@<TRIPOS>ATOM
      1 O5          -5.0760    11.7090    77.5720 os         1 A2G      -0.431000
      2 C1          -5.4090    10.3900    77.0920 c6         1 A2G       0.387300
      3 O1          -6.8140    10.3570    76.8240 oh         1 A2G      -0.697000
      4 C2          -4.9900     9.2970    78.1310 c6         1 A2G       0.048700
      5 N2          -5.3840     7.9280    77.7060 ns         1 A2G      -0.510900
      6 C3          -5.5870     9.6410    79.5340 c6         1 A2G       0.166300
      7 O3          -5.1160     8.7140    80.5240 oh         1 A2G      -0.636000
      8 C4          -5.2060    11.0880    79.9650 c6         1 A2G       0.117300
      9 O4          -3.7800    11.1580    80.2090 oh         1 A2G      -0.697000
     10 C5          -5.6760    12.0720    78.8430 c6         1 A2G       0.140300
     11 C6          -5.3110    13.5650    79.1180 c3         1 A2G       0.157600
     12 O6          -5.8320    14.0440    80.3730 oh         1 A2G      -0.733000
     13 C7          -4.7950     7.2120    76.6910 c          1 A2G       0.603100
     14 O7          -3.9230     7.6870    75.9810 o          1 A2G      -0.595100
     15 C8          -5.3190     5.7930    76.5170 c3         1 A2G      -0.180100
     16 H1          -4.8550    10.2090    76.1560 h2         1 A2G       0.084700
     17 HO1         -6.9970     9.4420    76.5210 ho         1 A2G       0.462000
     18 H2          -3.8930     9.3290    78.2070 h1         1 A2G       0.123700
     19 HN2         -6.0670     7.4330    78.2690 hn         1 A2G       0.311500
     20 H3          -6.6830     9.5780    79.4690 h1         1 A2G       0.036700
     21 HO3         -4.2690     9.1070    80.8370 ho         1 A2G       0.443000
     22 H4          -5.7570    11.3270    80.8870 h1         1 A2G       0.049700
     23 HO4         -3.6030    12.0400    80.6130 ho         1 A2G       0.507000
     24 H5          -6.7700    12.0170    78.7520 h1         1 A2G       0.065700
     25 H61         -4.2170    13.6700    79.0950 h1         1 A2G       0.040700
     26 H81         -4.8290     5.2610    75.6940 hc         1 A2G       0.060700
     27 H82         -5.2130     5.2560    77.4660 hc         1 A2G       0.060700
     28 H83         -6.4060     5.8270    76.3880 hc         1 A2G       0.060700
     29 H62         -5.7120    14.1660    78.2910 h1         1 A2G       0.040700
     30 HO6         -5.6350    15.0100    80.4180 ho         1 A2G       0.512000
@<TRIPOS>BOND
     1     1     2 1   
     2     1    10 1   
     3     2     3 1   
     4     2     4 1   
     5     2    16 1   
     6     3    17 1   
     7     4     5 1   
     8     4     6 1   
     9     4    18 1   
    10     5    13 1   
    11     5    19 1   
    12     6     7 1   
    13     6     8 1   
    14     6    20 1   
    15     7    21 1   
    16     8     9 1   
    17     8    10 1   
    18     8    22 1   
    19     9    23 1   
    20    10    11 1   
    21    10    24 1   
    22    11    12 1   
    23    11    25 1   
    24    11    29 1   
    25    12    30 1   
    26    13    14 2   
    27    13    15 1   
    28    15    26 1   
    29    15    27 1   
    30    15    28 1   
@<TRIPOS>SUBSTRUCTURE
     1 A2G         1 TEMP              0 ****  ****    0 ROOT
