@<TRIPOS>MOLECULE
A2I
   48    50     1     0     0
SMALL
abcg2


@<TRIPOS>ATOM
      1 C11         -2.5190    -3.3160    -0.2900 ca         1 A2I      -0.090000
      2 C14         -2.0750    -0.7590     0.6370 ca         1 A2I      -0.143000
      3 N15          0.2770    -0.9540     0.3450 ns         1 A2I      -0.143000
      4 C16          1.4650    -1.3910    -0.1350 c          1 A2I       0.620100
      5 C22          5.8520     2.0950     0.7270 ca         1 A2I       0.144300
      6 C23          7.1710     1.8600     0.3720 ca         1 A2I      -0.231000
      7 C24          7.4730     0.6560    -0.2580 ca         1 A2I       0.144300
      8 C1          -8.5520     2.4140    -0.1510 ca         1 A2I      -0.148000
      9 C2          -7.9350     2.0500    -1.3450 ca         1 A2I      -0.074500
     10 C3          -6.7830     1.2840    -1.3380 ca         1 A2I      -0.172500
     11 C4          -6.2260     0.8670    -0.1270 ca         1 A2I       0.140100
     12 C5          -6.8350     1.2310     1.0720 ca         1 A2I      -0.172500
     13 C6          -7.9940     2.0000     1.0470 ca         1 A2I      -0.074500
     14 C8          -4.5250    -0.3820     0.9790 c3         1 A2I       0.210900
     15 C9          -3.3700    -1.2490     0.5790 ca         1 A2I      -0.068300
     16 C10         -3.5930    -2.5400     0.1080 ca         1 A2I      -0.107000
     17 C12         -1.2170    -2.8340    -0.2320 ca         1 A2I      -0.118000
     18 C13         -0.9890    -1.5410     0.2360 ca         1 A2I      -0.025000
     19 O17          1.6360    -2.4370    -0.7330 o          1 A2I      -0.563100
     20 C18          2.6030    -0.4300     0.1430 c3         1 A2I      -0.081400
     21 S19          4.1130    -1.1600    -0.5240 ss         1 A2I      -0.209300
     22 C20          5.2900     0.0850    -0.1340 ca         1 A2I       0.222300
     23 N21          4.9030     1.1920     0.4680 nb         1 A2I      -0.196500
     24 N25          6.5190    -0.2350    -0.5120 nb         1 A2I      -0.196500
     25 C27          5.4210     3.3570     1.3980 c3         1 A2I      -0.151400
     26 H111        -2.6870    -4.3220    -0.6520 ha         1 A2I       0.119000
     27 H141        -1.9030     0.2490     0.9990 ha         1 A2I       0.110000
     28 H151         0.2890    -0.0550     0.8030 hn         1 A2I       0.153000
     29 H231         7.9430     2.5880     0.5790 ha         1 A2I       0.133000
     30 H021        -8.3570     2.3610    -2.2920 ha         1 A2I       0.112000
     31 H031        -6.3050     1.0030    -2.2680 ha         1 A2I       0.120500
     32 H051        -6.4280     0.9310     2.0280 ha         1 A2I       0.120500
     33 H061        -8.4600     2.2720     1.9860 ha         1 A2I       0.112000
     34 H082        -4.1890     0.4410     1.6190 h1         1 A2I       0.040700
     35 H081        -5.2600    -0.9650     1.5420 h1         1 A2I       0.040700
     36 H101        -4.6000    -2.9360     0.0590 ha         1 A2I       0.120000
     37 H121        -0.4030    -3.4670    -0.5430 ha         1 A2I       0.149000
     38 H182         2.4030     0.5350    -0.3260 h1         1 A2I       0.094700
     39 H181         2.7030    -0.2570     1.2160 h1         1 A2I       0.094700
     40 H273         4.7650     3.9280     0.7380 hc         1 A2I       0.057200
     41 H271         4.8550     3.1340     2.3020 hc         1 A2I       0.057200
     42 H272         6.2700     3.9850     1.6620 hc         1 A2I       0.057200
     43 C26          8.8650     0.3030    -0.6660 c3         1 A2I      -0.151400
     44 O7          -5.1040     0.1210    -0.2160 os         1 A2I      -0.343100
     45 H011        -9.4540     3.0120    -0.1610 ha         1 A2I       0.115000
     46 H261         9.2240    -0.5430    -0.0780 hc         1 A2I       0.057200
     47 H263         8.8920     0.0030    -1.7130 hc         1 A2I       0.057200
     48 H262         9.5510     1.1340    -0.5220 hc         1 A2I       0.057200
@<TRIPOS>BOND
     1     1    16 ar  
     2     1    17 ar  
     3     1    26 1   
     4     2    15 ar  
     5     2    18 ar  
     6     2    27 1   
     7     3     4 1   
     8     3    18 1   
     9     3    28 1   
    10     4    19 2   
    11     4    20 1   
    12     5     6 ar  
    13     5    23 ar  
    14     5    25 1   
    15     6     7 ar  
    16     6    29 1   
    17     7    24 ar  
    18     7    43 1   
    19     8     9 ar  
    20     8    13 ar  
    21     8    45 1   
    22     9    10 ar  
    23     9    30 1   
    24    10    11 ar  
    25    10    31 1   
    26    11    12 ar  
    27    11    44 1   
    28    12    13 ar  
    29    12    32 1   
    30    13    33 1   
    31    14    15 1   
    32    14    34 1   
    33    14    35 1   
    34    14    44 1   
    35    15    16 ar  
    36    16    36 1   
    37    17    18 ar  
    38    17    37 1   
    39    20    21 1   
    40    20    38 1   
    41    20    39 1   
    42    21    22 1   
    43    22    23 ar  
    44    22    24 ar  
    45    25    40 1   
    46    25    41 1   
    47    25    42 1   
    48    43    46 1   
    49    43    47 1   
    50    43    48 1   
@<TRIPOS>SUBSTRUCTURE
     1 A2I         1 TEMP              0 ****  ****    0 ROOT
