@<TRIPOS>MOLECULE
A2I
   48    50     1     0     0
SMALL
No Charge or Current Charge


@<TRIPOS>ATOM
      1 C11         -2.6430    -3.6210    -0.2830 ca         1 A2I      -0.090000
      2 C14         -2.1360    -0.9900     0.5370 ca         1 A2I      -0.143000
      3 N15          0.2400    -1.2280     0.1480 ns         1 A2I      -0.143000
      4 C16          1.4940    -1.7310    -0.1780 c          1 A2I       0.620100
      5 C22          5.7260     2.2020     0.5700 ca         1 A2I       0.144300
      6 C23          7.1070     2.0680     0.3530 ca         1 A2I      -0.231000
      7 C24          7.5760     0.8280    -0.1090 ca         1 A2I       0.144300
      8 C1          -8.3290     2.8120     0.0000 ca         1 A2I      -0.148000
      9 C2          -7.6920     2.5190    -1.2170 ca         1 A2I      -0.074500
     10 C3          -6.6220     1.6070    -1.2450 ca         1 A2I      -0.172500
     11 C4          -6.1840     0.9860    -0.0640 ca         1 A2I       0.140100
     12 C5          -6.8270     1.2840     1.1590 ca         1 A2I      -0.172500
     13 C6          -7.8970     2.1960     1.1870 ca         1 A2I      -0.074500
     14 C8          -4.6060    -0.5870     0.9950 c3         1 A2I       0.210900
     15 C9          -3.4560    -1.4800     0.5450 ca         1 A2I      -0.068300
     16 C10         -3.7050    -2.8010     0.1310 ca         1 A2I      -0.107000
     17 C12         -1.3270    -3.1280    -0.2870 ca         1 A2I      -0.118000
     18 C13         -1.0620    -1.8030     0.1250 ca         1 A2I      -0.025000
     19 O17          1.6960    -2.8730    -0.5770 o          1 A2I      -0.563100
     20 C18          2.6260    -0.7080     0.0130 c3         1 A2I      -0.081400
     21 S19          4.3190    -1.3590    -0.4120 ss         1 A2I      -0.209300
     22 C20          5.4190     0.0200    -0.1020 ca         1 A2I       0.222300
     23 N21          4.8810     1.1780     0.3400 nb         1 A2I      -0.196500
     24 N25          6.7310    -0.1990    -0.3350 nb         1 A2I      -0.196500
     25 C27          5.1180     3.5020     1.0630 c3         1 A2I      -0.151400
     26 H111        -2.8410    -4.6420    -0.6020 ha         1 A2I       0.119000
     27 H141        -1.9450     0.0330     0.8540 ha         1 A2I       0.110000
     28 H151         0.2530    -0.2660     0.4620 hn         1 A2I       0.153000
     29 H231         7.7880     2.8950     0.5360 ha         1 A2I       0.133000
     30 H021        -8.0260     2.9960    -2.1360 ha         1 A2I       0.112000
     31 H031        -6.1300     1.3800    -2.1870 ha         1 A2I       0.120500
     32 H051        -6.5140     0.8210     2.0910 ha         1 A2I       0.120500
     33 H061        -8.3920     2.4250     2.1290 ha         1 A2I       0.112000
     34 H082        -4.2410     0.1300     1.7410 h1         1 A2I       0.040700
     35 H081        -5.3840    -1.2030     1.4640 h1         1 A2I       0.040700
     36 H101        -4.7200    -3.1910     0.1280 ha         1 A2I       0.120000
     37 H121        -0.5330    -3.7920    -0.6140 ha         1 A2I       0.149000
     38 H182         2.4020     0.1600    -0.6190 h1         1 A2I       0.094700
     39 H181         2.6130    -0.3860     1.0610 h1         1 A2I       0.094700
     40 H273         4.7080     4.0810     0.2270 hc         1 A2I       0.057200
     41 H271         4.3050     3.3170     1.7750 hc         1 A2I       0.057200
     42 H272         5.8650     4.1250     1.5690 hc         1 A2I       0.057200
     43 C26          9.0500     0.5800    -0.3690 c3         1 A2I      -0.151400
     44 O7          -5.1300     0.1010    -0.1550 os         1 A2I      -0.343100
     45 H011        -9.1570     3.5170     0.0240 ha         1 A2I       0.115000
     46 H261         9.5140     0.0690     0.4830 hc         1 A2I       0.057200
     47 H263         9.1990    -0.0450    -1.2580 hc         1 A2I       0.057200
     48 H262         9.5900     1.5200    -0.5310 hc         1 A2I       0.057200
@<TRIPOS>BOND
     1     1    16 ar  
     2     1    17 ar  
     3     1    26 1   
     4     2    15 ar  
     5     2    18 ar  
     6     2    27 1   
     7     3     4 1   
     8     3    18 1   
     9     3    28 1   
    10     4    19 2   
    11     4    20 1   
    12     5     6 ar  
    13     5    23 ar  
    14     5    25 1   
    15     6     7 ar  
    16     6    29 1   
    17     7    24 ar  
    18     7    43 1   
    19     8     9 ar  
    20     8    13 ar  
    21     8    45 1   
    22     9    10 ar  
    23     9    30 1   
    24    10    11 ar  
    25    10    31 1   
    26    11    12 ar  
    27    11    44 1   
    28    12    13 ar  
    29    12    32 1   
    30    13    33 1   
    31    14    15 1   
    32    14    34 1   
    33    14    35 1   
    34    14    44 1   
    35    15    16 ar  
    36    16    36 1   
    37    17    18 ar  
    38    17    37 1   
    39    20    21 1   
    40    20    38 1   
    41    20    39 1   
    42    21    22 1   
    43    22    23 ar  
    44    22    24 ar  
    45    25    40 1   
    46    25    41 1   
    47    25    42 1   
    48    43    46 1   
    49    43    47 1   
    50    43    48 1   
@<TRIPOS>SUBSTRUCTURE
     1 A2I         1 TEMP              0 ****  ****    0 ROOT
