@<TRIPOS>MOLECULE
A2J
   20    21     1     0     0
SMALL
abcg2


@<TRIPOS>ATOM
      1 C4          -1.3710     0.6300     0.0190 ca         1 A2J       0.035400
      2 N2          -0.0450     0.9810     0.0070 nc         1 A2J      -0.449100
      3 C7           0.5790    -1.3810     0.0150 c          1 A2J       0.456700
      4 C6          -3.1080    -1.0600     0.0400 ca         1 A2J      -0.168000
      5 C8           0.8510     0.0740     0.0040 cd         1 A2J       0.244300
      6 C1          -4.0560    -0.0570     0.0440 ca         1 A2J      -0.040000
      7 C2          -3.6830     1.2900     0.0370 ca         1 A2J      -0.149000
      8 C3          -2.3490     1.6290     0.0240 ca         1 A2J      -0.013000
      9 C5          -1.7560    -0.7180     0.0280 ca         1 A2J       0.088600
     10 N1          -0.7620    -1.6600     0.0250 ns         1 A2J      -0.371100
     11 O1           1.4300    -2.2410     0.0140 o          1 A2J      -0.497000
     12 F1           2.9270     0.0320    -1.0870 f          1 A2J      -0.097000
     13 F2           2.4050     1.8280    -0.0250 f          1 A2J      -0.097000
     14 F3           2.9390     0.0570     1.0720 f          1 A2J      -0.097000
     15 H5          -3.4090    -2.0990     0.0490 ha         1 A2J       0.127000
     16 H2          -5.1040    -0.3220     0.0550 ha         1 A2J       0.123000
     17 H3          -4.4420     2.0600     0.0410 ha         1 A2J       0.128000
     18 H4          -2.0300     2.6630     0.0210 ha         1 A2J       0.140000
     19 H1          -1.0120    -2.6390     0.0340 hn         1 A2J       0.335500
     20 C9           2.2990     0.5040    -0.0090 c3         1 A2J       0.300700
@<TRIPOS>BOND
     1     1     2 1   
     2     1     8 ar  
     3     1     9 ar  
     4     2     5 2   
     5     3     5 1   
     6     3    10 1   
     7     3    11 2   
     8     4     6 ar  
     9     4     9 ar  
    10     4    15 1   
    11     5    20 1   
    12     6     7 ar  
    13     6    16 1   
    14     7     8 ar  
    15     7    17 1   
    16     8    18 1   
    17     9    10 1   
    18    10    19 1   
    19    12    20 1   
    20    13    20 1   
    21    14    20 1   
@<TRIPOS>SUBSTRUCTURE
     1 A2J         1 TEMP              0 ****  ****    0 ROOT
