@<TRIPOS>MOLECULE
A2J
   20    21     1     0     0
SMALL
No Charge or Current Charge


@<TRIPOS>ATOM
      1 C4          -1.3720     0.6720     0.0200 ca         1 A2J       0.035400
      2 N2          -0.0310     1.1160     0.0070 nc         1 A2J      -0.449100
      3 C7           0.5820    -1.3720     0.0150 c          1 A2J       0.456700
      4 C6          -3.1120    -1.0660     0.0430 ca         1 A2J      -0.168000
      5 C8           0.8780     0.1100     0.0050 cd         1 A2J       0.244300
      6 C1          -4.1120    -0.0820     0.0460 ca         1 A2J      -0.040000
      7 C2          -3.7490     1.2750     0.0360 ca         1 A2J      -0.149000
      8 C3          -2.3910     1.6450     0.0230 ca         1 A2J      -0.013000
      9 C5          -1.7590    -0.6880     0.0300 ca         1 A2J       0.088600
     10 N1          -0.7540    -1.6500     0.0270 ns         1 A2J      -0.371100
     11 O1           1.4090    -2.2740     0.0130 o          1 A2J      -0.497000
     12 F1           2.9920    -0.0200    -1.1000 f          1 A2J      -0.097000
     13 F2           2.5770     1.8120    -0.0180 f          1 A2J      -0.097000
     14 F3           3.0090    -0.0090     1.0770 f          1 A2J      -0.097000
     15 H5          -3.3890    -2.1180     0.0510 ha         1 A2J       0.127000
     16 H2          -5.1620    -0.3680     0.0560 ha         1 A2J       0.123000
     17 H3          -4.5200     2.0420     0.0380 ha         1 A2J       0.128000
     18 H4          -2.1260     2.7000     0.0160 ha         1 A2J       0.140000
     19 H1          -1.0260    -2.6260     0.0340 hn         1 A2J       0.335500
     20 C9           2.3590     0.4730    -0.0090 c3         1 A2J       0.300700
@<TRIPOS>BOND
     1     1     2 1   
     2     1     8 ar  
     3     1     9 ar  
     4     2     5 2   
     5     3     5 1   
     6     3    10 1   
     7     3    11 2   
     8     4     6 ar  
     9     4     9 ar  
    10     4    15 1   
    11     5    20 1   
    12     6     7 ar  
    13     6    16 1   
    14     7     8 ar  
    15     7    17 1   
    16     8    18 1   
    17     9    10 1   
    18    10    19 1   
    19    12    20 1   
    20    13    20 1   
    21    14    20 1   
@<TRIPOS>SUBSTRUCTURE
     1 A2J         1 TEMP              0 ****  ****    0 ROOT
