@<TRIPOS>MOLECULE
A2K
   75    81     1     0     0
SMALL
No Charge or Current Charge


@<TRIPOS>ATOM
      1 O33         -4.8330     5.1310    -1.2750 o          1 A2K      -0.527100
      2 C1          -4.1960     4.1100    -1.0570 c          1 A2K       0.574300
      3 C4          -4.3370     3.3370     0.1970 ce         1 A2K      -0.309200
      4 C20         -3.5250     2.2970     0.5330 cf         1 A2K      -0.003200
      5 C6          -3.7960     1.5010     1.8130 c6         1 A2K      -0.051200
      6 C19         -2.3880     1.8640    -0.2970 cf         1 A2K      -0.101200
      7 C5          -1.9620     2.9210    -1.3560 c6         1 A2K      -0.029200
      8 C3          -3.1860     3.5490    -2.0560 c6         1 A2K      -0.180400
      9 C8          -1.7420     0.6660    -0.1080 c2         1 A2K      -0.070400
     10 C11         -0.5020     0.2380    -0.9450 c6         1 A2K       0.022800
     11 C10         -0.2970    -1.3080    -1.0890 c6         1 A2K      -0.055400
     12 C12         -0.5190    -2.1050     0.2180 c5         1 A2K      -0.032000
     13 C16          0.6510    -1.7920     1.2160 c3         1 A2K      -0.086100
     14 C13         -1.9420    -1.7620     0.7360 c5         1 A2K      -0.062700
     15 C14         -2.1490    -2.8030     1.8810 c5         1 A2K      -0.064400
     16 C9          -2.1380    -0.2610     1.0710 c6         1 A2K      -0.015500
     17 C7          -3.5850     0.0030     1.5520 c6         1 A2K      -0.070400
     18 C15         -0.7840    -3.6380    -0.0080 c5         1 A2K      -0.156700
     19 C22          0.4840    -4.4960    -0.2720 c          1 A2K       0.617100
     20 O24          1.4600    -4.6280     0.4580 o          1 A2K      -0.527100
     21 C23          0.3590    -5.2330    -1.5940 cx         1 A2K      -0.266700
     22 C31          1.6120    -5.5730    -2.3780 cx         1 A2K      -0.098400
     23 C30          0.6810    -4.4950    -2.8780 cx         1 A2K      -0.098400
     24 C2          -1.4180    -4.0840     1.3450 c5         1 A2K      -0.023500
     25 C39         -2.3940    -5.2110     1.0450 c2         1 A2K      -0.223200
     26 C40         -1.9150    -6.4610     0.9330 c2         1 A2K      -0.304000
     27 C21          0.7950     0.9890    -0.5700 ca         1 A2K      -0.062300
     28 C29          0.9080     1.7480     0.6140 ca         1 A2K      -0.110000
     29 C28          2.0990     2.4290     0.9170 ca         1 A2K      -0.096000
     30 C27          3.2150     2.3830     0.0460 cp         1 A2K      -0.034000
     31 C26          3.0850     1.6300    -1.1460 ca         1 A2K      -0.096000
     32 C25          1.8950     0.9490    -1.4500 ca         1 A2K      -0.110000
     33 C32          4.4840     3.1110     0.3710 cp         1 A2K      -0.085000
     34 C38          4.4760     4.3320     1.0980 ca         1 A2K       0.345900
     35 N37          5.5900     5.0350     1.4190 nb         1 A2K      -0.664000
     36 C36          6.7830     4.5380     1.0220 ca         1 A2K       0.336900
     37 C35          6.9060     3.3400     0.3010 ca         1 A2K      -0.163000
     38 C34          5.7490     2.6160    -0.0310 ca         1 A2K      -0.065000
     39 H4          -5.1450     3.6440     0.8580 ha         1 A2K       0.197000
     40 H31C        -3.6970     2.7260    -2.5720 hc         1 A2K       0.071200
     41 H32C        -2.9210     4.3080    -2.8030 hc         1 A2K       0.071200
     42 H61C        -3.1250     1.8490     2.6110 hc         1 A2K       0.057700
     43 H62C        -4.8230     1.6730     2.1640 hc         1 A2K       0.057700
     44 H71C        -3.7940    -0.5610     2.4710 hc         1 A2K       0.050700
     45 H72C        -4.3060    -0.3410     0.7970 hc         1 A2K       0.050700
     46 H51C        -1.3900     3.7100    -0.8470 hc         1 A2K       0.055700
     47 H52C        -1.2920     2.5250    -2.1250 hc         1 A2K       0.055700
     48 H11         -0.7110     0.5300    -1.9800 hc         1 A2K       0.060700
     49 H9          -1.4770    -0.0150     1.9120 hc         1 A2K       0.063700
     50 H101        -1.0100    -1.6700    -1.8430 hc         1 A2K       0.046200
     51 H102         0.6950    -1.5300    -1.5020 hc         1 A2K       0.046200
     52 H161         0.6370    -0.7570     1.5650 hc         1 A2K       0.042033
     53 H162         0.6260    -2.4190     2.1130 hc         1 A2K       0.042033
     54 H163         1.6270    -1.9500     0.7420 hc         1 A2K       0.042033
     55 H13         -2.6850    -1.9510    -0.0510 hc         1 A2K       0.049700
     56 H15         -1.4870    -3.7810    -0.8390 hc         1 A2K       0.065700
     57 H141        -1.6970    -2.4600     2.8190 hc         1 A2K       0.048700
     58 H142        -3.2100    -2.9730     2.0920 hc         1 A2K       0.048700
     59 H2          -0.6430    -4.4140     2.0470 hc         1 A2K       0.075700
     60 H23         -0.4490    -5.9580    -1.6340 hc         1 A2K       0.088700
     61 H311         2.5750    -5.2620    -1.9800 hc         1 A2K       0.079450
     62 H312         1.6310    -6.5160    -2.9210 hc         1 A2K       0.079450
     63 H301         0.0750    -4.7140    -3.7550 hc         1 A2K       0.079450
     64 H302         1.0320    -3.4680    -2.8170 hc         1 A2K       0.079450
     65 H39         -3.4600    -5.0160     0.9040 ha         1 A2K       0.162000
     66 H401        -2.5740    -7.3020     0.7080 ha         1 A2K       0.165500
     67 H402        -0.8590    -6.6970     1.0660 ha         1 A2K       0.165500
     68 H29          0.0820     1.8120     1.3160 ha         1 A2K       0.114500
     69 H25          1.8280     0.3910    -2.3820 ha         1 A2K       0.114500
     70 H28          2.1560     2.9880     1.8470 ha         1 A2K       0.115500
     71 H26          3.9080     1.5850    -1.8540 ha         1 A2K       0.115500
     72 H38          3.5350     4.7730     1.4250 h4         1 A2K       0.020100
     73 H34          5.8360     1.6800    -0.5780 ha         1 A2K       0.120000
     74 H36          7.6650     5.1170     1.2910 h4         1 A2K       0.020100
     75 H35          7.8880     2.9810     0.0080 ha         1 A2K       0.124000
@<TRIPOS>BOND
     1     1     2 2   
     2     2     3 1   
     3     2     8 1   
     4     3     4 2   
     5     3    39 1   
     6     4     5 1   
     7     4     6 1   
     8     5    17 1   
     9     5    42 1   
    10     5    43 1   
    11     6     7 1   
    12     6     9 2   
    13     7     8 1   
    14     7    46 1   
    15     7    47 1   
    16     8    40 1   
    17     8    41 1   
    18     9    10 1   
    19     9    16 1   
    20    10    11 1   
    21    10    27 1   
    22    10    48 1   
    23    11    12 1   
    24    11    50 1   
    25    11    51 1   
    26    12    13 1   
    27    12    14 1   
    28    12    18 1   
    29    13    52 1   
    30    13    53 1   
    31    13    54 1   
    32    14    15 1   
    33    14    16 1   
    34    14    55 1   
    35    15    24 1   
    36    15    57 1   
    37    15    58 1   
    38    16    17 1   
    39    16    49 1   
    40    17    44 1   
    41    17    45 1   
    42    18    19 1   
    43    18    24 1   
    44    18    56 1   
    45    19    20 2   
    46    19    21 1   
    47    21    22 1   
    48    21    23 1   
    49    21    60 1   
    50    22    23 1   
    51    22    61 1   
    52    22    62 1   
    53    23    63 1   
    54    23    64 1   
    55    24    25 1   
    56    24    59 1   
    57    25    26 2   
    58    25    65 1   
    59    26    66 1   
    60    26    67 1   
    61    27    28 ar  
    62    27    32 ar  
    63    28    29 ar  
    64    28    68 1   
    65    29    30 ar  
    66    29    70 1   
    67    30    31 ar  
    68    30    33 1   
    69    31    32 ar  
    70    31    71 1   
    71    32    69 1   
    72    33    34 ar  
    73    33    38 ar  
    74    34    35 ar  
    75    34    72 1   
    76    35    36 ar  
    77    36    37 ar  
    78    36    74 1   
    79    37    38 ar  
    80    37    75 1   
    81    38    73 1   
@<TRIPOS>SUBSTRUCTURE
     1 A2K         1 TEMP              0 ****  ****    0 ROOT
