@<TRIPOS>MOLECULE
A2K
   75    81     1     0     0
SMALL
bcc


@<TRIPOS>ATOM
      1 O33         -5.3480     4.6470    -1.2880 o          1 A2K      -0.527100
      2 C1          -4.5420     3.7660    -1.0380 c          1 A2K       0.574300
      3 C4          -4.4210     3.1900     0.2950 ce         1 A2K      -0.259200
      4 C20         -3.5330     2.2200     0.6020 cf         1 A2K      -0.003200
      5 C6          -3.5130     1.6020     1.9610 c6         1 A2K      -0.051200
      6 C19         -2.5250     1.7590    -0.3560 cf         1 A2K      -0.101200
      7 C5          -2.3290     2.6800    -1.5310 c6         1 A2K      -0.029200
      8 C3          -3.6590     3.1630    -2.0980 c6         1 A2K      -0.180400
      9 C8          -1.7800     0.6590    -0.1090 c2         1 A2K      -0.070400
     10 C11         -0.6330     0.2730    -1.0220 c6         1 A2K       0.022800
     11 C10         -0.5000    -1.2530    -1.2230 c6         1 A2K      -0.055400
     12 C12         -0.5800    -2.0450     0.0710 c5         1 A2K      -0.032000
     13 C16          0.6510    -1.8180     0.9570 c3         1 A2K      -0.086100
     14 C13         -1.8980    -1.6720     0.7540 c5         1 A2K      -0.062700
     15 C14         -2.0520    -2.7110     1.8590 c5         1 A2K      -0.064400
     16 C9          -1.9970    -0.1990     1.1250 c6         1 A2K      -0.015500
     17 C7          -3.3130     0.1030     1.8270 c6         1 A2K      -0.070400
     18 C15         -0.8250    -3.5700    -0.0950 c5         1 A2K      -0.156700
     19 C22          0.3960    -4.3430    -0.5260 c          1 A2K       0.617100
     20 O24          1.0550    -5.0120     0.2440 o          1 A2K      -0.527100
     21 C23          0.7720    -4.2060    -1.9530 cx         1 A2K      -0.266700
     22 C31          1.6060    -5.2830    -2.6000 cx         1 A2K      -0.098400
     23 C30          2.2340    -3.9810    -2.2800 cx         1 A2K      -0.098400
     24 C2          -1.4340    -4.0050     1.2590 c5         1 A2K      -0.023500
     25 C39         -2.4350    -5.0990     1.0700 c2         1 A2K      -0.173200
     26 C40         -2.3060    -6.3390     1.5280 c2         1 A2K      -0.204000
     27 C21          0.6730     0.9480    -0.6200 ca         1 A2K      -0.062300
     28 C29          0.7920     1.7860     0.4840 ca         1 A2K      -0.128000
     29 C28          1.9960     2.4020     0.7960 ca         1 A2K      -0.114000
     30 C27          3.1270     2.2140     0.0050 cp         1 A2K      -0.034000
     31 C26          3.0060     1.3890    -1.1150 ca         1 A2K      -0.114000
     32 C25          1.8040     0.7740    -1.4180 ca         1 A2K      -0.128000
     33 C32          4.4060     2.8680     0.3300 cp         1 A2K      -0.150300
     34 C38          4.4430     4.1570     0.8650 ca         1 A2K       0.411200
     35 N37          5.5570     4.7990     1.1840 nb         1 A2K      -0.664000
     36 C36          6.7150     4.1810     0.9760 ca         1 A2K       0.402200
     37 C35          6.8020     2.9050     0.4400 ca         1 A2K      -0.246300
     38 C34          5.6310     2.2410     0.1140 ca         1 A2K      -0.083000
     39 H4          -5.1150     3.5410     1.0510 ha         1 A2K       0.147000
     40 H31C        -4.2040     2.3160    -2.5300 hc         1 A2K       0.071200
     41 H32C        -3.5040     3.8830    -2.9020 hc         1 A2K       0.071200
     42 H61C        -2.6790     2.0280     2.5310 hc         1 A2K       0.057700
     43 H62C        -4.4270     1.8410     2.5050 hc         1 A2K       0.057700
     44 H71C        -3.3210    -0.3660     2.8120 hc         1 A2K       0.050700
     45 H72C        -4.1430    -0.3300     1.2600 hc         1 A2K       0.050700
     46 H51C        -1.7460     3.5450    -1.1960 hc         1 A2K       0.055700
     47 H52C        -1.7550     2.2180    -2.3300 hc         1 A2K       0.055700
     48 H11         -0.8500     0.6560    -2.0210 hc         1 A2K       0.060700
     49 H9          -1.1880     0.0300     1.8340 hc         1 A2K       0.063700
     50 H101        -1.3200    -1.5700    -1.8750 hc         1 A2K       0.046200
     51 H102         0.4210    -1.4680    -1.7680 hc         1 A2K       0.046200
     52 H161         0.6640    -0.8320     1.4180 hc         1 A2K       0.042033
     53 H162         0.7220    -2.5450     1.7650 hc         1 A2K       0.042033
     54 H163         1.5670    -1.8960     0.3680 hc         1 A2K       0.042033
     55 H13         -2.6890    -1.8630     0.0140 hc         1 A2K       0.049700
     56 H15         -1.5780    -3.6880    -0.8870 hc         1 A2K       0.065700
     57 H141        -1.5100    -2.4110     2.7600 hc         1 A2K       0.048700
     58 H142        -3.0930    -2.8550     2.1520 hc         1 A2K       0.048700
     59 H2          -0.6400    -4.3720     1.9110 hc         1 A2K       0.075700
     60 H23          0.0560    -3.6980    -2.5860 hc         1 A2K       0.088700
     61 H311         1.8620    -6.1400    -1.9920 hc         1 A2K       0.079450
     62 H312         1.3810    -5.5080    -3.6340 hc         1 A2K       0.079450
     63 H301         2.4470    -3.2910    -3.0850 hc         1 A2K       0.079450
     64 H302         2.9220    -3.9360    -1.4450 hc         1 A2K       0.079450
     65 H39         -3.3230    -4.8310     0.5000 ha         1 A2K       0.112000
     66 H401        -3.0620    -7.0930     1.3490 ha         1 A2K       0.115500
     67 H402        -1.4350    -6.6450     2.0960 ha         1 A2K       0.115500
     68 H29         -0.0570     1.9690     1.1310 ha         1 A2K       0.132500
     69 H25          1.7510     0.1560    -2.3060 ha         1 A2K       0.132500
     70 H28          2.0490     3.0230     1.6820 ha         1 A2K       0.133500
     71 H26          3.8520     1.2420    -1.7740 ha         1 A2K       0.133500
     72 H38          3.5170     4.7000     1.0260 h4         1 A2K       0.020100
     73 H34          5.6710     1.2370    -0.2890 ha         1 A2K       0.138000
     74 H36          7.6130     4.7260     1.2450 h4         1 A2K       0.020100
     75 H35          7.7670     2.4410     0.2880 ha         1 A2K       0.142000
@<TRIPOS>BOND
     1     1     2 2   
     2     2     3 1   
     3     2     8 1   
     4     3     4 2   
     5     3    39 1   
     6     4     5 1   
     7     4     6 1   
     8     5    17 1   
     9     5    42 1   
    10     5    43 1   
    11     6     7 1   
    12     6     9 2   
    13     7     8 1   
    14     7    46 1   
    15     7    47 1   
    16     8    40 1   
    17     8    41 1   
    18     9    10 1   
    19     9    16 1   
    20    10    11 1   
    21    10    27 1   
    22    10    48 1   
    23    11    12 1   
    24    11    50 1   
    25    11    51 1   
    26    12    13 1   
    27    12    14 1   
    28    12    18 1   
    29    13    52 1   
    30    13    53 1   
    31    13    54 1   
    32    14    15 1   
    33    14    16 1   
    34    14    55 1   
    35    15    24 1   
    36    15    57 1   
    37    15    58 1   
    38    16    17 1   
    39    16    49 1   
    40    17    44 1   
    41    17    45 1   
    42    18    19 1   
    43    18    24 1   
    44    18    56 1   
    45    19    20 2   
    46    19    21 1   
    47    21    22 1   
    48    21    23 1   
    49    21    60 1   
    50    22    23 1   
    51    22    61 1   
    52    22    62 1   
    53    23    63 1   
    54    23    64 1   
    55    24    25 1   
    56    24    59 1   
    57    25    26 2   
    58    25    65 1   
    59    26    66 1   
    60    26    67 1   
    61    27    28 ar  
    62    27    32 ar  
    63    28    29 ar  
    64    28    68 1   
    65    29    30 ar  
    66    29    70 1   
    67    30    31 ar  
    68    30    33 1   
    69    31    32 ar  
    70    31    71 1   
    71    32    69 1   
    72    33    34 ar  
    73    33    38 ar  
    74    34    35 ar  
    75    34    72 1   
    76    35    36 ar  
    77    36    37 ar  
    78    36    74 1   
    79    37    38 ar  
    80    37    75 1   
    81    38    73 1   
@<TRIPOS>SUBSTRUCTURE
     1 A2K         1 TEMP              0 ****  ****    0 ROOT
