@<TRIPOS>MOLECULE
A2N
   63    66     1     0     0
SMALL
No Charge or Current Charge


@<TRIPOS>ATOM
      1 N1          -0.3390     4.6480    -0.7110 nb         1 A2N      -0.305000
      2 C2          -1.0760     4.3730     0.3910 ca         1 A2N       0.139900
      3 N3          -1.5800     3.1670     0.7470 nb         1 A2N      -0.195000
      4 C4          -1.3190     2.1480    -0.0960 ca         1 A2N       0.106500
      5 C5          -0.5830     2.3220    -1.2420 ca         1 A2N      -0.067600
      6 C6          -0.0910     3.6130    -1.5270 ca         1 A2N       0.397900
      7 N6           0.6670     3.8810    -2.6240 nv         1 A2N      -1.055900
      8 N7          -0.4300     1.1440    -1.9600 nc         1 A2N      -0.609100
      9 C8          -1.1090     0.2600    -1.1960 cd         1 A2N       0.496700
     10 N9          -1.6550     0.8220    -0.0270 na         1 A2N      -0.291300
     11 C1          -2.2010     0.0920     1.1080 c5         1 A2N       0.323300
     12 C7          -3.7320    -0.2290     1.0670 c5         1 A2N       0.068300
     13 O2          -4.5800     0.8310     1.5570 oh         1 A2N      -0.707000
     14 C3          -3.7650    -1.4630     2.0110 c5         1 A2N       0.099300
     15 O3          -3.6730    -1.0470     3.3800 oh         1 A2N      -0.711000
     16 C9          -2.4980    -2.2310     1.5010 c5         1 A2N       0.155300
     17 O4          -1.5320    -1.1840     1.2190 os         1 A2N      -0.404000
     18 C10         -2.7770    -3.0670     0.2160 c3         1 A2N       0.217600
     19 O5          -1.8570    -4.1650     0.1120 os         1 A2N      -0.560400
     20 CAA          3.4190     5.2440    -0.6770 c3         1 A2N      -0.178100
     21 OAC          4.2110     3.9100     1.1630 o          1 A2N      -0.624100
     22 OAD         -0.5550    -3.1640    -1.8480 o          1 A2N      -0.857000
     23 OAE          2.1210    -5.1560     1.2250 o          1 A2N      -0.844500
     24 OAF          2.2980     1.0270     2.4410 oh         1 A2N      -0.665000
     25 OAI          2.3420     0.8550    -2.1240 oh         1 A2N      -0.770000
     26 OAJ         -0.0450    -5.4510    -1.0470 o          1 A2N      -0.857000
     27 OAK          2.5720    -3.8710    -0.8580 o          1 A2N      -0.844500
     28 CAO          3.2110    -1.5440     0.7770 c3         1 A2N       0.222600
     29 NAS          3.0190     2.8380    -0.4760 ns         1 A2N      -0.477900
     30 OAU          2.5200    -2.6630     1.3690 os         1 A2N      -0.579400
     31 OAV          1.3190     0.0930     0.5840 os         1 A2N      -0.438000
     32 OAX          0.4120    -3.4160     0.4940 os         1 A2N      -0.698800
     33 CAY          3.5920     3.9490     0.1080 c          1 A2N       0.600100
     34 CBC          1.9440     1.2780     1.0970 c5         1 A2N       0.369300
     35 CBF          3.0530     0.4200    -0.9450 c5         1 A2N       0.151300
     36 CBH          2.2890    -0.6880    -0.1600 c5         1 A2N       0.092300
     37 CBI          3.1960     1.5170     0.1770 c5         1 A2N       0.024700
     38 PBL         -0.4420    -4.0640    -0.6620 p5         1 A2N       1.469800
     39 PBM          1.9190    -3.8750     0.4840 p5         1 A2N       1.459800
     40 H2          -1.2820     5.2050     1.0620 h5         1 A2N       0.028100
     41 HN6          0.6560     3.1820    -3.3630 hn         1 A2N       0.481000
     42 HN6A         0.7360     4.8480    -2.9260 hn         1 A2N       0.481000
     43 H8          -1.2030    -0.8000    -1.3990 h5         1 A2N       0.164800
     44 H1          -1.9710     0.6870     2.0010 h2         1 A2N       0.096700
     45 H6          -4.0320    -0.5180     0.0490 h1         1 A2N       0.072700
     46 HO2         -4.5650     1.5580     0.8890 ho         1 A2N       0.500000
     47 H3          -4.6800    -2.0530     1.8600 h1         1 A2N       0.049700
     48 HO3         -4.1530    -0.1820     3.3940 ho         1 A2N       0.501000
     49 H4          -2.1010    -2.9000     2.2760 h1         1 A2N       0.099700
     50 H5          -3.7960    -3.4690     0.2780 h1         1 A2N       0.010700
     51 H5'A        -2.7400    -2.4210    -0.6700 h1         1 A2N       0.010700
     52 HAA          4.0050     6.0720    -0.2610 hc         1 A2N       0.047033
     53 HAAA         3.6450     5.0670    -1.7340 hc         1 A2N       0.047033
     54 HAAB         2.3540     5.4990    -0.7020 hc         1 A2N       0.047033
     55 HOAF         1.6480     0.3540     2.7300 ho         1 A2N       0.447000
     56 HOAI         1.3800     0.9690    -1.8790 ho         1 A2N       0.555000
     57 HAO          3.6480    -0.9180     1.5630 h1         1 A2N       0.017200
     58 HAOA         4.0550    -1.9110     0.1790 h1         1 A2N       0.017200
     59 HBF          4.0500     0.0620    -1.2440 h1         1 A2N       0.073700
     60 HBH          1.7680    -1.3580    -0.8550 h1         1 A2N       0.141700
     61 HBI          4.1370     1.4130     0.7330 h1         1 A2N       0.105700
     62 HNAS         2.5360     2.9670    -1.3600 hn         1 A2N       0.323500
     63 HBC          1.2340     2.1140     1.0520 h2         1 A2N       0.023700
@<TRIPOS>BOND
     1     1     2 ar  
     2     1     6 ar  
     3     2     3 ar  
     4     2    40 1   
     5     3     4 ar  
     6     4     5 ar  
     7     4    10 1   
     8     5     6 ar  
     9     5     8 1   
    10     6     7 1   
    11     7    41 1   
    12     7    42 1   
    13     8     9 2   
    14     9    10 1   
    15     9    43 1   
    16    10    11 1   
    17    11    12 1   
    18    11    17 1   
    19    11    44 1   
    20    12    13 1   
    21    12    14 1   
    22    12    45 1   
    23    13    46 1   
    24    14    15 1   
    25    14    16 1   
    26    14    47 1   
    27    15    48 1   
    28    16    17 1   
    29    16    18 1   
    30    16    49 1   
    31    18    19 1   
    32    18    50 1   
    33    18    51 1   
    34    19    38 1   
    35    20    33 1   
    36    20    52 1   
    37    20    53 1   
    38    20    54 1   
    39    21    33 2   
    40    22    38 1   
    41    23    39 1   
    42    24    34 1   
    43    24    55 1   
    44    25    35 1   
    45    25    56 1   
    46    26    38 1   
    47    27    39 1   
    48    28    30 1   
    49    28    36 1   
    50    28    57 1   
    51    28    58 1   
    52    29    33 1   
    53    29    37 1   
    54    29    62 1   
    55    30    39 1   
    56    31    34 1   
    57    31    36 1   
    58    32    38 1   
    59    32    39 1   
    60    34    37 1   
    61    34    63 1   
    62    35    36 1   
    63    35    37 1   
    64    35    59 1   
    65    36    60 1   
    66    37    61 1   
@<TRIPOS>SUBSTRUCTURE
     1 A2N         1 TEMP              0 ****  ****    0 ROOT
