@<TRIPOS>MOLECULE
A2N
   63    66     1     0     0
SMALL
bcc


@<TRIPOS>ATOM
      1 N1          -0.9720     4.7150    -0.2960 nb         1 A2N      -0.831000
      2 C2          -1.8910     4.4210     0.6230 ca         1 A2N       0.665900
      3 N3          -2.3430     3.2300     0.9750 nb         1 A2N      -0.721000
      4 C4          -1.7550     2.2530     0.2930 ca         1 A2N       0.434800
      5 C5          -0.7840     2.4110    -0.6840 ca         1 A2N      -0.198200
      6 C6          -0.3950     3.7250    -0.9760 ca         1 A2N       0.726200
      7 N6           0.5710     4.0150    -1.8770 nv         1 A2N      -0.945500
      8 N7          -0.3820     1.1880    -1.1550 nc         1 A2N      -0.609100
      9 C8          -1.0830     0.3170    -0.4840 cd         1 A2N       0.496700
     10 N9          -1.9400     0.9030     0.4010 na         1 A2N      -0.262000
     11 C1          -2.8780     0.2310     1.2750 c5         1 A2N       0.270800
     12 C7          -4.1220    -0.2890     0.5500 c5         1 A2N       0.045100
     13 O2          -5.0910     0.7130     0.4940 oh         1 A2N      -0.584800
     14 C3          -4.4870    -1.5020     1.4120 c5         1 A2N       0.076100
     15 O3          -5.1300    -1.1070     2.5950 oh         1 A2N      -0.588800
     16 C9          -3.1050    -2.0350     1.7600 c5         1 A2N       0.132100
     17 O4          -2.2580    -0.8840     1.8360 os         1 A2N      -0.357600
     18 C10         -2.5950    -3.0210     0.7240 c3         1 A2N       0.194400
     19 O5          -1.2610    -3.3450     1.0250 os         1 A2N      -0.537200
     20 CAA          4.0090     5.1350    -0.5970 c3         1 A2N      -0.178100
     21 OAC          5.3230     3.4310     0.4390 o          1 A2N      -0.624100
     22 OAD         -0.3580    -2.7010    -1.2920 o          1 A2N      -0.857000
     23 OAE          2.9680    -5.0790     1.3190 o          1 A2N      -0.844500
     24 OAF          3.0180     1.1410     2.2100 oh         1 A2N      -0.602800
     25 OAI          2.1660     0.9240    -2.2010 oh         1 A2N      -0.647800
     26 OAJ         -0.3640    -5.1810    -0.5350 o          1 A2N      -0.857000
     27 OAK          2.7480    -4.1970    -1.1370 o          1 A2N      -0.844500
     28 CAO          3.8070    -1.6560    -0.0880 c3         1 A2N       0.199400
     29 NAS          3.3550     2.8190    -0.5000 ns         1 A2N      -0.544900
     30 OAU          3.4760    -2.6880     0.8160 os         1 A2N      -0.556200
     31 OAV          1.9690    -0.2480     0.6770 os         1 A2N      -0.391600
     32 OAX          1.1040    -3.4690     0.7030 os         1 A2N      -0.698800
     33 CAY          4.3030     3.7180    -0.1720 c          1 A2N       0.667100
     34 CBC          2.3950     1.0560     0.9710 c5         1 A2N       0.322900
     35 CBF          3.0950     0.4510    -1.2680 c5         1 A2N       0.128100
     36 CBH          2.6290    -0.7700    -0.4680 c5         1 A2N       0.069100
     37 CBI          3.3980     1.4360    -0.1260 c5         1 A2N       0.024700
     38 PBL         -0.2290    -3.7280    -0.2030 p5         1 A2N       1.469800
     39 PBM          2.6210    -4.0050     0.3410 p5         1 A2N       1.459800
     40 H2          -2.3200     5.2700     1.1430 h5         1 A2N       0.028100
     41 HN6          0.7640     3.3400    -2.6000 hn         1 A2N       0.425800
     42 HN6A         0.6430     4.9760    -2.1720 hn         1 A2N       0.425800
     43 H8          -0.9780    -0.7570    -0.5930 h5         1 A2N       0.164800
     44 H1          -3.1610     0.9640     2.0380 h2         1 A2N       0.096700
     45 H6          -3.8420    -0.6360    -0.4520 h1         1 A2N       0.072700
     46 HO2         -5.7310     0.4910    -0.1900 ho         1 A2N       0.401000
     47 H3          -5.0800    -2.2350     0.8490 h1         1 A2N       0.049700
     48 HO3         -5.8360    -0.4930     2.3620 ho         1 A2N       0.402000
     49 H4          -3.1060    -2.5150     2.7430 h1         1 A2N       0.099700
     50 H5          -3.2350    -3.9100     0.7590 h1         1 A2N       0.010700
     51 H5'A        -2.6890    -2.6010    -0.2840 h1         1 A2N       0.010700
     52 HAA          4.9080     5.5900    -1.0100 hc         1 A2N       0.047033
     53 HAAA         3.2090     5.2150    -1.3300 hc         1 A2N       0.047033
     54 HAAB         3.7220     5.7170     0.2800 hc         1 A2N       0.047033
     55 HOAF         2.3490     1.1170     2.9010 ho         1 A2N       0.408000
     56 HOAI         1.2540     0.9130    -1.8340 ho         1 A2N       0.456000
     57 HAO          4.5850    -1.0640     0.4030 h1         1 A2N       0.017200
     58 HAOA         4.2420    -2.0590    -1.0080 h1         1 A2N       0.017200
     59 HBF          4.0110     0.2330    -1.8260 h1         1 A2N       0.073700
     60 HBH          1.8980    -1.3560    -1.0320 h1         1 A2N       0.141700
     61 HBI          4.4020     1.2270     0.2480 h1         1 A2N       0.105700
     62 HNAS         2.5400     3.1480    -0.9990 hn         1 A2N       0.323500
     63 HBC          1.5140     1.7140     0.9500 h2         1 A2N       0.023700
@<TRIPOS>BOND
     1     1     2 ar  
     2     1     6 ar  
     3     2     3 ar  
     4     2    40 1   
     5     3     4 ar  
     6     4     5 ar  
     7     4    10 1   
     8     5     6 ar  
     9     5     8 1   
    10     6     7 1   
    11     7    41 1   
    12     7    42 1   
    13     8     9 2   
    14     9    10 1   
    15     9    43 1   
    16    10    11 1   
    17    11    12 1   
    18    11    17 1   
    19    11    44 1   
    20    12    13 1   
    21    12    14 1   
    22    12    45 1   
    23    13    46 1   
    24    14    15 1   
    25    14    16 1   
    26    14    47 1   
    27    15    48 1   
    28    16    17 1   
    29    16    18 1   
    30    16    49 1   
    31    18    19 1   
    32    18    50 1   
    33    18    51 1   
    34    19    38 1   
    35    20    33 1   
    36    20    52 1   
    37    20    53 1   
    38    20    54 1   
    39    21    33 2   
    40    22    38 1   
    41    23    39 1   
    42    24    34 1   
    43    24    55 1   
    44    25    35 1   
    45    25    56 1   
    46    26    38 1   
    47    27    39 1   
    48    28    30 1   
    49    28    36 1   
    50    28    57 1   
    51    28    58 1   
    52    29    33 1   
    53    29    37 1   
    54    29    62 1   
    55    30    39 1   
    56    31    34 1   
    57    31    36 1   
    58    32    38 1   
    59    32    39 1   
    60    34    37 1   
    61    34    63 1   
    62    35    36 1   
    63    35    37 1   
    64    35    59 1   
    65    36    60 1   
    66    37    61 1   
@<TRIPOS>SUBSTRUCTURE
     1 A2N         1 TEMP              0 ****  ****    0 ROOT
