@<TRIPOS>MOLECULE
A2O
   47    49     1     0     0
SMALL
No Charge or Current Charge


@<TRIPOS>ATOM
      1 C1          -2.7820     0.4120     0.2560 ca         1 A2O      -0.004000
      2 C2          -2.4360     1.6950    -0.2250 ca         1 A2O      -0.113300
      3 C3          -1.7520    -0.4020     0.7790 ca         1 A2O      -0.143000
      4 C4          -0.4450     0.0940     0.9300 ca         1 A2O      -0.044000
      5 C5          -0.1210     1.4010     0.5140 ca         1 A2O       0.205000
      6 C6          -4.4380    -2.6260     0.1070 c3         1 A2O      -0.099400
      7 C7          -1.1260     2.1900    -0.0660 ca         1 A2O      -0.108000
      8 C9          -3.4900     2.5640    -0.9040 c6         1 A2O      -0.026100
      9 C10          5.3230    -2.7150    -0.1880 ca         1 A2O      -0.108000
     10 C11          6.4320    -2.1910    -0.8740 ca         1 A2O      -0.098000
     11 C12         -4.4550     1.6910    -1.7250 c6         1 A2O      -0.159400
     12 C13         -5.0040     0.5270    -0.8970 c          1 A2O       0.567000
     13 C14         -4.9090    -3.8030     0.9820 c3         1 A2O      -0.088100
     14 C15          2.7430     0.0880    -0.6440 c3         1 A2O      -0.274100
     15 C16          4.0380    -0.7110    -0.7240 ca         1 A2O      -0.082300
     16 C17          5.1510    -0.1910    -1.4120 ca         1 A2O      -0.086000
     17 C18          4.1290    -1.9770    -0.1140 ca         1 A2O      -0.086000
     18 C19          6.3460    -0.9290    -1.4860 ca         1 A2O      -0.108000
     19 N1           1.1610     1.9470     0.6390 nu         1 A2O      -0.872100
     20 N2          -4.1010    -0.1230    -0.0170 n          1 A2O      -0.221400
     21 O1           2.5790     0.4000     2.0150 o          1 A2O      -0.518000
     22 O2          -6.1800     0.1970    -1.0040 o          1 A2O      -0.535000
     23 O3           3.6210     2.2620     0.6330 o          1 A2O      -0.518000
     24 S1           2.6370     1.1870     0.7810 s6         1 A2O       1.166100
     25 H1          -1.9480    -1.4240     1.0900 ha         1 A2O       0.132000
     26 H2           0.3070    -0.5520     1.3700 ha         1 A2O       0.145000
     27 H3          -5.0050    -2.6290    -0.8320 hc         1 A2O       0.051200
     28 H4          -3.3860    -2.7770    -0.1600 hc         1 A2O       0.051200
     29 H5          -0.8860     3.1920    -0.4120 ha         1 A2O       0.112000
     30 H6          -5.6760    -1.0980     1.0250 h1         1 A2O       0.061200
     31 H7          -4.0940    -1.2640     1.7640 h1         1 A2O       0.061200
     32 H8          -4.0500     3.1230    -0.1410 hc         1 A2O       0.060200
     33 H9          -3.0190     3.3110    -1.5580 hc         1 A2O       0.060200
     34 H11          7.3560    -2.7620    -0.9320 ha         1 A2O       0.115000
     35 H12         -5.2700     2.2580    -2.1920 hc         1 A2O       0.078700
     36 H13         -3.8470     1.2360    -2.5180 hc         1 A2O       0.078700
     37 H14         -4.7730    -4.7530     0.4510 hc         1 A2O       0.035700
     38 H15         -4.3350    -3.8470     1.9160 hc         1 A2O       0.035700
     39 H16         -5.9720    -3.7000     1.2330 hc         1 A2O       0.035700
     40 H17          2.6270     0.7250    -1.5270 h1         1 A2O       0.094200
     41 H18          1.8820    -0.5840    -0.5790 h1         1 A2O       0.094200
     42 H19          5.0920     0.7860    -1.8880 ha         1 A2O       0.119500
     43 H20          3.2750    -2.3890     0.4200 ha         1 A2O       0.119500
     44 H21          7.2030    -0.5220    -2.0180 ha         1 A2O       0.117000
     45 H22          1.3450     2.8460     0.2140 hn         1 A2O       0.486000
     46 C8          -4.6130    -1.2550     0.7970 c3         1 A2O       0.095000
     47 H10          5.3880    -3.6920     0.2860 ha         1 A2O       0.117000
@<TRIPOS>BOND
     1     1     2 ar  
     2     1     3 ar  
     3     1    20 1   
     4     2     7 ar  
     5     2     8 1   
     6     3     4 ar  
     7     3    25 1   
     8     4     5 ar  
     9     4    26 1   
    10     5     7 ar  
    11     5    19 1   
    12     6    13 1   
    13     6    27 1   
    14     6    28 1   
    15     6    46 1   
    16     7    29 1   
    17     8    11 1   
    18     8    32 1   
    19     8    33 1   
    20     9    10 ar  
    21     9    17 ar  
    22     9    47 1   
    23    10    18 ar  
    24    10    34 1   
    25    11    12 1   
    26    11    35 1   
    27    11    36 1   
    28    12    20 1   
    29    12    22 2   
    30    13    37 1   
    31    13    38 1   
    32    13    39 1   
    33    14    15 1   
    34    14    24 1   
    35    14    40 1   
    36    14    41 1   
    37    15    16 ar  
    38    15    17 ar  
    39    16    18 ar  
    40    16    42 1   
    41    17    43 1   
    42    18    44 1   
    43    19    24 1   
    44    19    45 1   
    45    20    46 1   
    46    21    24 2   
    47    23    24 2   
    48    30    46 1   
    49    31    46 1   
@<TRIPOS>SUBSTRUCTURE
     1 A2O         1 TEMP              0 ****  ****    0 ROOT
