@<TRIPOS>MOLECULE
A2O
   47    49     1     0     0
SMALL
bcc


@<TRIPOS>ATOM
      1 C1          -2.6550     0.1770     0.2620 ca         1 A2O       0.088600
      2 C2          -2.0210     1.1940    -0.4620 ca         1 A2O      -0.113300
      3 C3          -2.0200    -0.3530     1.3830 ca         1 A2O      -0.161000
      4 C4          -0.7820     0.1210     1.7870 ca         1 A2O      -0.062000
      5 C5          -0.1440     1.1140     1.0590 ca         1 A2O       0.066600
      6 C6          -4.6040    -2.5110     0.7320 c3         1 A2O      -0.099400
      7 C7          -0.7710     1.6380    -0.0670 ca         1 A2O      -0.126000
      8 C9          -2.7310     1.7530    -1.6530 c6         1 A2O      -0.026100
      9 C10          4.7900    -2.2420    -1.6470 ca         1 A2O      -0.126000
     10 C11          6.0770    -1.7180    -1.6350 ca         1 A2O      -0.116000
     11 C12         -3.4580     0.6260    -2.3650 c6         1 A2O      -0.159400
     12 C13         -4.3730    -0.1160    -1.4260 c          1 A2O       0.709500
     13 C14         -5.4750    -3.2080     1.7680 c3         1 A2O      -0.088100
     14 C15          2.7400     0.7620    -0.6110 c3         1 A2O      -0.163300
     15 C16          3.9040    -0.1000    -0.9840 ca         1 A2O      -0.082300
     16 C17          5.1960     0.4190    -0.9690 ca         1 A2O      -0.104000
     17 C18          3.7090    -1.4370    -1.3180 ca         1 A2O      -0.104000
     18 C19          6.2770    -0.3860    -1.2970 ca         1 A2O      -0.126000
     19 N1           1.1230     1.5990     1.4790 nu         1 A2O      -0.678500
     20 N2          -3.9280    -0.2650    -0.1400 n          1 A2O      -0.381000
     21 O1           2.1760    -0.6810     1.5330 o          1 A2O      -0.588800
     22 O2          -5.4450    -0.5700    -1.7850 o          1 A2O      -0.610500
     23 O3           3.5860     1.3790     1.8220 o          1 A2O      -0.588800
     24 S1           2.4830     0.6920     1.1720 s6         1 A2O       1.196900
     25 H1          -2.4740    -1.1410     1.9670 ha         1 A2O       0.150000
     26 H2          -0.3190    -0.2870     2.6740 ha         1 A2O       0.163000
     27 H3          -4.8630    -2.8600    -0.2690 hc         1 A2O       0.051200
     28 H4          -3.5570    -2.7810     0.8920 hc         1 A2O       0.051200
     29 H5          -0.2830     2.4160    -0.6450 ha         1 A2O       0.130000
     30 H6          -5.8110    -0.7350     0.5930 h1         1 A2O       0.061200
     31 H7          -4.5610    -0.6310     1.8020 h1         1 A2O       0.061200
     32 H8          -3.4510     2.5140    -1.3350 hc         1 A2O       0.060200
     33 H9          -2.0300     2.2470    -2.3270 hc         1 A2O       0.060200
     34 H11          6.9200    -2.3450    -1.8930 ha         1 A2O       0.133000
     35 H12         -4.0530     0.9940    -3.1990 hc         1 A2O       0.078700
     36 H13         -2.7360    -0.0880    -2.7740 hc         1 A2O       0.078700
     37 H14         -5.3600    -4.2900     1.7130 hc         1 A2O       0.035700
     38 H15         -5.2100    -2.8990     2.7800 hc         1 A2O       0.035700
     39 H16         -6.5320    -2.9790     1.6180 hc         1 A2O       0.035700
     40 H17          2.9000     1.8120    -0.8590 h1         1 A2O       0.094200
     41 H18          1.8120     0.4290    -1.0790 h1         1 A2O       0.094200
     42 H19          5.3560     1.4590    -0.7110 ha         1 A2O       0.137500
     43 H20          2.7070    -1.8470    -1.3320 ha         1 A2O       0.137500
     44 H21          7.2780     0.0270    -1.2880 ha         1 A2O       0.135000
     45 H22          1.2830     2.5870     1.3110 hn         1 A2O       0.430800
     46 C8          -4.7740    -0.9980     0.7970 c3         1 A2O       0.095000
     47 H10          4.6280    -3.2780    -1.9110 ha         1 A2O       0.135000
@<TRIPOS>BOND
     1     1     2 ar  
     2     1     3 ar  
     3     1    20 1   
     4     2     7 ar  
     5     2     8 1   
     6     3     4 ar  
     7     3    25 1   
     8     4     5 ar  
     9     4    26 1   
    10     5     7 ar  
    11     5    19 1   
    12     6    13 1   
    13     6    27 1   
    14     6    28 1   
    15     6    46 1   
    16     7    29 1   
    17     8    11 1   
    18     8    32 1   
    19     8    33 1   
    20     9    10 ar  
    21     9    17 ar  
    22     9    47 1   
    23    10    18 ar  
    24    10    34 1   
    25    11    12 1   
    26    11    35 1   
    27    11    36 1   
    28    12    20 1   
    29    12    22 2   
    30    13    37 1   
    31    13    38 1   
    32    13    39 1   
    33    14    15 1   
    34    14    24 1   
    35    14    40 1   
    36    14    41 1   
    37    15    16 ar  
    38    15    17 ar  
    39    16    18 ar  
    40    16    42 1   
    41    17    43 1   
    42    18    44 1   
    43    19    24 1   
    44    19    45 1   
    45    20    46 1   
    46    21    24 2   
    47    23    24 2   
    48    30    46 1   
    49    31    46 1   
@<TRIPOS>SUBSTRUCTURE
     1 A2O         1 TEMP              0 ****  ****    0 ROOT
