@<TRIPOS>MOLECULE
A2Q
   15    15     1     0     0
SMALL
No Charge or Current Charge


@<TRIPOS>ATOM
      1 C1          -1.0730     0.0230    -0.0730 c          1 A2Q       0.569300
      2 C2          -0.2760    -1.2700    -0.2920 c6         1 A2Q      -0.181400
      3 C3           1.1160    -1.2130     0.3860 c6         1 A2Q      -0.066400
      4 C4           1.9140     0.0240    -0.0980 c6         1 A2Q      -0.060200
      5 C5           1.0800     1.2980    -0.0530 c2         1 A2Q      -0.150200
      6 C6          -0.2740     1.2810    -0.0610 ce         1 A2Q      -0.308200
      7 O1          -2.2850     0.0190     0.0910 o          1 A2Q      -0.525100
      8 H21C        -0.8720    -2.1420     0.0080 hc         1 A2Q       0.069200
      9 H22C        -0.0950    -1.3380    -1.3720 hc         1 A2Q       0.069200
     10 H6          -0.8500     2.2040    -0.0040 ha         1 A2Q       0.197000
     11 H31C         0.9890    -1.1640     1.4770 hc         1 A2Q       0.048700
     12 H32C         1.6810    -2.1320     0.1760 hc         1 A2Q       0.048700
     13 H41C         2.8180     0.1460     0.5140 hc         1 A2Q       0.056200
     14 H42C         2.2590    -0.1400    -1.1290 hc         1 A2Q       0.056200
     15 H5           1.6320     2.2410    -0.0160 ha         1 A2Q       0.176000
@<TRIPOS>BOND
     1     1     2 1   
     2     1     6 1   
     3     1     7 2   
     4     2     3 1   
     5     2     8 1   
     6     2     9 1   
     7     3     4 1   
     8     3    11 1   
     9     3    12 1   
    10     4     5 1   
    11     4    13 1   
    12     4    14 1   
    13     5     6 2   
    14     5    15 1   
    15     6    10 1   
@<TRIPOS>SUBSTRUCTURE
     1 A2Q         1 TEMP              0 ****  ****    0 ROOT
