@<TRIPOS>MOLECULE
A2Q
   15    15     1     0     0
SMALL
abcg2


@<TRIPOS>ATOM
      1 C1          -1.0430     0.0180    -0.0760 c          1 A2Q       0.569300
      2 C2          -0.2580    -1.2520    -0.2890 c6         1 A2Q      -0.181400
      3 C3           1.1130    -1.1980     0.3750 c6         1 A2Q      -0.066400
      4 C4           1.8980     0.0190    -0.0930 c6         1 A2Q      -0.060200
      5 C5           1.0720     1.2610    -0.0460 c2         1 A2Q      -0.150200
      6 C6          -0.2650     1.2620    -0.0060 ce         1 A2Q      -0.308200
      7 O1          -2.2590     0.0270    -0.0120 o          1 A2Q      -0.525100
      8 H21C        -0.8420    -2.1030     0.0610 hc         1 A2Q       0.069200
      9 H22C        -0.1370    -1.3760    -1.3730 hc         1 A2Q       0.069200
     10 H6          -0.8180     2.1920     0.0510 ha         1 A2Q       0.197000
     11 H31C         0.9870    -1.1470     1.4600 hc         1 A2Q       0.048700
     12 H32C         1.6660    -2.1130     0.1630 hc         1 A2Q       0.048700
     13 H41C         2.7980     0.1590     0.5090 hc         1 A2Q       0.056200
     14 H42C         2.2520    -0.1220    -1.1220 hc         1 A2Q       0.056200
     15 H5           1.5990     2.2090    -0.0480 ha         1 A2Q       0.176000
@<TRIPOS>BOND
     1     1     2 1   
     2     1     6 1   
     3     1     7 2   
     4     2     3 1   
     5     2     8 1   
     6     2     9 1   
     7     3     4 1   
     8     3    11 1   
     9     3    12 1   
    10     4     5 1   
    11     4    13 1   
    12     4    14 1   
    13     5     6 2   
    14     5    15 1   
    15     6    10 1   
@<TRIPOS>SUBSTRUCTURE
     1 A2Q         1 TEMP              0 ****  ****    0 ROOT
