@<TRIPOS>MOLECULE
A2T
   88    91     1     0     0
SMALL
abcg2


@<TRIPOS>ATOM
      1 O22          2.3730     1.1860    -1.4650 o          1 A2T      -0.582100
      2 C20          1.9490     0.6300    -2.4700 c          1 A2T       0.612700
      3 C23          2.2010     1.2650    -3.8030 ca         1 A2T      -0.147600
      4 C27          1.7470     2.5600    -4.0330 ca         1 A2T      -0.079000
      5 C31          2.0300     3.1960    -5.2320 ca         1 A2T      -0.114000
      6 C33          2.7980     2.5740    -6.2140 ca         1 A2T      -0.060300
      7 C35          3.0570     3.2470    -7.5300 c3         1 A2T      -0.035100
      8 C37          1.9710     2.9240    -8.5590 c3         1 A2T      -0.073400
      9 C39          2.2120     3.5950    -9.9040 c3         1 A2T      -0.076400
     10 C42          1.1410     3.2650   -10.9370 c3         1 A2T      -0.074400
     11 C43          1.3860     3.9400   -12.2790 c3         1 A2T      -0.089100
     12 C30          3.2720     1.2880    -5.9610 ca         1 A2T      -0.114000
     13 C26          2.9740     0.6360    -4.7740 ca         1 A2T      -0.079000
     14 N19          1.2870    -0.5470    -2.4390 n          1 A2T      -0.402800
     15 C21          1.0940    -1.2760    -1.1800 c6         1 A2T       0.116700
     16 C25          0.2050    -0.5780    -0.1560 c6         1 A2T      -0.089900
     17 C29         -0.0370    -1.5090     1.0220 c6         1 A2T       0.167800
     18 N32          1.2080    -1.9220     1.6450 n3         1 A2T      -0.711600
     19 C34          0.9930    -2.7610     2.8150 c3         1 A2T       0.167800
     20 C36          0.3180    -2.0360     3.9730 c3         1 A2T      -0.072400
     21 C38          0.2020    -2.8610     5.2610 c3         1 A2T      -0.060700
     22 C41          1.5620    -3.2640     5.8270 c3         1 A2T      -0.087600
     23 C40         -0.7010    -4.0800     5.0910 c3         1 A2T      -0.087600
     24 C28          2.0620    -2.6030     0.6860 c6         1 A2T       0.167800
     25 C24          2.3890    -1.7260    -0.5150 c6         1 A2T      -0.089900
     26 C18          0.5120    -1.0630    -3.5640 c3         1 A2T       0.149300
     27 C17         -0.9660    -0.9380    -3.2950 ca         1 A2T      -0.111300
     28 C15         -1.5760     0.3140    -3.2960 ca         1 A2T      -0.092500
     29 C13         -2.9010     0.4560    -2.9170 ca         1 A2T      -0.110000
     30 C16         -1.7220    -2.0510    -2.9500 ca         1 A2T      -0.092500
     31 C14         -3.0500    -1.9180    -2.5710 ca         1 A2T      -0.110000
     32 C12         -3.6380    -0.6610    -2.5350 ca         1 A2T       0.275000
     33 N44         -4.9810    -0.5120    -2.1060 nh         1 A2T      -0.861200
     34 C45         -6.0220    -0.4610    -3.1140 c3         1 A2T       0.222100
     35 C4          -5.2920    -0.6240    -0.7850 ca         1 A2T       0.372000
     36 C2          -4.3040    -0.6620     0.2170 ca         1 A2T      -0.243500
     37 C8          -6.6220    -0.6910    -0.3390 ca         1 A2T      -0.243500
     38 C9          -6.8770    -0.7850     1.0160 ca         1 A2T       0.365900
     39 N6          -5.9460    -0.8220     1.9640 nb         1 A2T      -0.698000
     40 C3          -4.6860    -0.7590     1.5390 ca         1 A2T       0.365900
     41 H27          1.1610     3.0720    -3.2800 ha         1 A2T       0.121000
     42 H31          1.6530     4.1970    -5.4040 ha         1 A2T       0.115500
     43 H351         3.1090     4.3300    -7.3890 hc         1 A2T       0.049700
     44 H352         4.0290     2.9350    -7.9230 hc         1 A2T       0.049700
     45 H371         0.9980     3.2340    -8.1630 hc         1 A2T       0.040700
     46 H372         1.9150     1.8390    -8.6940 hc         1 A2T       0.040700
     47 H391         2.2610     4.6810    -9.7650 hc         1 A2T       0.038200
     48 H392         3.1920     3.2940   -10.2910 hc         1 A2T       0.038200
     49 H421         0.1610     3.5640   -10.5510 hc         1 A2T       0.036700
     50 H422         1.0940     2.1810   -11.0750 hc         1 A2T       0.036700
     51 H431         2.3450     3.6380   -12.7040 hc         1 A2T       0.032367
     52 H432         0.6110     3.6860   -13.0030 hc         1 A2T       0.032367
     53 H433         1.3990     5.0270   -12.1780 hc         1 A2T       0.032367
     54 H30          3.8850     0.7870    -6.7010 ha         1 A2T       0.115500
     55 H26          3.3530    -0.3640    -4.6030 ha         1 A2T       0.121000
     56 H21          0.5710    -2.1920    -1.4730 h1         1 A2T       0.039700
     57 H251        -0.7550    -0.3100    -0.6010 hc         1 A2T       0.063200
     58 H252         0.6730     0.3430     0.1900 hc         1 A2T       0.063200
     59 H291        -0.6540    -0.9840     1.7530 h1         1 A2T       0.028700
     60 H292        -0.6260    -2.3820     0.6820 h1         1 A2T       0.028700
     61 H341         1.9760    -3.1080     3.1450 h1         1 A2T       0.029700
     62 H342         0.4210    -3.6670     2.5490 h1         1 A2T       0.029700
     63 H361        -0.6900    -1.7220     3.6890 hc         1 A2T       0.046200
     64 H362         0.8790    -1.1200     4.1830 hc         1 A2T       0.046200
     65 H38         -0.2760    -2.2040     5.9960 hc         1 A2T       0.045700
     66 H411         2.0660    -3.9930     5.1890 hc         1 A2T       0.031867
     67 H412         2.2230    -2.4020     5.9330 hc         1 A2T       0.031867
     68 H413         1.4530    -3.7190     6.8130 hc         1 A2T       0.031867
     69 H401        -1.6740    -3.8010     4.6820 hc         1 A2T       0.031867
     70 H402        -0.8740    -4.5730     6.0490 hc         1 A2T       0.031867
     71 H403        -0.2600    -4.8200     4.4200 hc         1 A2T       0.031867
     72 H281         1.5990    -3.5430     0.3340 h1         1 A2T       0.028700
     73 H282         2.9910    -2.8860     1.1860 h1         1 A2T       0.028700
     74 H241         2.9770    -0.8680    -0.1890 hc         1 A2T       0.063200
     75 H242         2.9970    -2.2970    -1.2210 hc         1 A2T       0.063200
     76 H181         0.7770    -2.1110    -3.7220 h1         1 A2T       0.062700
     77 H182         0.7770    -0.5320    -4.4740 h1         1 A2T       0.062700
     78 H15         -1.0070     1.1960    -3.5690 ha         1 A2T       0.119000
     79 H13         -3.3620     1.4350    -2.8980 ha         1 A2T       0.127000
     80 H16         -1.2670    -3.0340    -2.9620 ha         1 A2T       0.119000
     81 H14         -3.6240    -2.7910    -2.2870 ha         1 A2T       0.127000
     82 H451        -6.5810    -1.3990    -3.1750 h1         1 A2T       0.041033
     83 H452        -5.5650    -0.2770    -4.0830 h1         1 A2T       0.041033
     84 H453        -6.7260     0.3480    -2.9180 h1         1 A2T       0.041033
     85 H2          -3.2510    -0.6080    -0.0230 ha         1 A2T       0.122500
     86 H8          -7.4550    -0.6780    -1.0260 ha         1 A2T       0.122500
     87 H9          -7.9090    -0.8400     1.3500 h4         1 A2T       0.012100
     88 H3          -3.9170    -0.7850     2.3040 h4         1 A2T       0.012100
@<TRIPOS>BOND
     1     1     2 2   
     2     2     3 1   
     3     2    14 1   
     4     3     4 ar  
     5     3    13 ar  
     6     4     5 ar  
     7     4    41 1   
     8     5     6 ar  
     9     5    42 1   
    10     6     7 1   
    11     6    12 ar  
    12     7     8 1   
    13     7    43 1   
    14     7    44 1   
    15     8     9 1   
    16     8    45 1   
    17     8    46 1   
    18     9    10 1   
    19     9    47 1   
    20     9    48 1   
    21    10    11 1   
    22    10    49 1   
    23    10    50 1   
    24    11    51 1   
    25    11    52 1   
    26    11    53 1   
    27    12    13 ar  
    28    12    54 1   
    29    13    55 1   
    30    14    15 1   
    31    14    26 1   
    32    15    16 1   
    33    15    25 1   
    34    15    56 1   
    35    16    17 1   
    36    16    57 1   
    37    16    58 1   
    38    17    18 1   
    39    17    59 1   
    40    17    60 1   
    41    18    19 1   
    42    18    24 1   
    43    19    20 1   
    44    19    61 1   
    45    19    62 1   
    46    20    21 1   
    47    20    63 1   
    48    20    64 1   
    49    21    22 1   
    50    21    23 1   
    51    21    65 1   
    52    22    66 1   
    53    22    67 1   
    54    22    68 1   
    55    23    69 1   
    56    23    70 1   
    57    23    71 1   
    58    24    25 1   
    59    24    72 1   
    60    24    73 1   
    61    25    74 1   
    62    25    75 1   
    63    26    27 1   
    64    26    76 1   
    65    26    77 1   
    66    27    28 ar  
    67    27    30 ar  
    68    28    29 ar  
    69    28    78 1   
    70    29    32 ar  
    71    29    79 1   
    72    30    31 ar  
    73    30    80 1   
    74    31    32 ar  
    75    31    81 1   
    76    32    33 1   
    77    33    34 1   
    78    33    35 1   
    79    34    82 1   
    80    34    83 1   
    81    34    84 1   
    82    35    36 ar  
    83    35    37 ar  
    84    36    40 ar  
    85    36    85 1   
    86    37    38 ar  
    87    37    86 1   
    88    38    39 ar  
    89    38    87 1   
    90    39    40 ar  
    91    40    88 1   
@<TRIPOS>SUBSTRUCTURE
     1 A2T         1 TEMP              0 ****  ****    0 ROOT
