@<TRIPOS>MOLECULE
A2T
   88    91     1     0     0
SMALL
No Charge or Current Charge


@<TRIPOS>ATOM
      1 O22          2.1590     1.4520    -1.6290 o          1 A2T      -0.582100
      2 C20          1.7760     0.8570    -2.6290 c          1 A2T       0.612700
      3 C23          2.2250     1.3320    -3.9960 ca         1 A2T      -0.147600
      4 C27          2.3830     2.7140    -4.2360 ca         1 A2T      -0.079000
      5 C31          2.8190     3.1790    -5.4880 ca         1 A2T      -0.114000
      6 C33          3.1240     2.2710    -6.5180 ca         1 A2T      -0.060300
      7 C35          3.5910     2.7760    -7.8760 c3         1 A2T      -0.035100
      8 C37          2.4140     2.9900    -8.8510 c3         1 A2T      -0.073400
      9 C39          2.8590     3.5030   -10.2380 c3         1 A2T      -0.076400
     10 C42          1.6780     3.7160   -11.2100 c3         1 A2T      -0.074400
     11 C43          2.1210     4.2280   -12.5950 c3         1 A2T      -0.089100
     12 C30          2.9960     0.8910    -6.2780 ca         1 A2T      -0.114000
     13 C26          2.5590     0.4240    -5.0270 ca         1 A2T      -0.079000
     14 N19          1.0010    -0.3300    -2.5330 n          1 A2T      -0.402800
     15 C21          0.8640    -1.0890    -1.2530 c6         1 A2T       0.116700
     16 C25          0.0470    -0.3740    -0.1500 c6         1 A2T      -0.089900
     17 C29         -0.1340    -1.3040     1.0710 c6         1 A2T       0.167800
     18 N32          1.1770    -1.7910     1.5980 n3         1 A2T      -0.711600
     19 C34          1.0530    -2.6130     2.8280 c3         1 A2T       0.167800
     20 C36          0.4830    -1.8630     4.0620 c3         1 A2T      -0.072400
     21 C38          0.4920    -2.6680     5.3910 c3         1 A2T      -0.060700
     22 C41          1.9200    -2.9970     5.8870 c3         1 A2T      -0.087600
     23 C40         -0.3920    -3.9360     5.3260 c3         1 A2T      -0.087600
     24 C28          1.9540    -2.5040     0.5440 c6         1 A2T       0.167800
     25 C24          2.2050    -1.6160    -0.6970 c6         1 A2T      -0.089900
     26 C18          0.0290    -0.6690    -3.6100 c3         1 A2T       0.149300
     27 C17         -1.4240    -0.6490    -3.1520 ca         1 A2T      -0.111300
     28 C15         -2.0970     0.5780    -3.0030 ca         1 A2T      -0.092500
     29 C13         -3.4180     0.6060    -2.5220 ca         1 A2T      -0.110000
     30 C16         -2.0920    -1.8470    -2.8360 ca         1 A2T      -0.092500
     31 C14         -3.4110    -1.8130    -2.3520 ca         1 A2T      -0.110000
     32 C12         -4.0830    -0.5880    -2.1830 ca         1 A2T       0.275000
     33 N44         -5.3990    -0.5640    -1.6600 nh         1 A2T      -0.861200
     34 C45         -6.4480     0.1940    -2.3890 c3         1 A2T       0.222100
     35 C4          -5.7290    -1.2540    -0.4660 ca         1 A2T       0.372000
     36 C2          -4.7570    -1.4950     0.5150 ca         1 A2T      -0.243500
     37 C8          -7.0310    -1.7080    -0.2140 ca         1 A2T      -0.243500
     38 C9          -7.3040    -2.3800     0.9820 ca         1 A2T       0.365900
     39 N6          -6.3660    -2.6150     1.9230 nb         1 A2T      -0.698000
     40 C3          -5.1140    -2.1740     1.6840 ca         1 A2T       0.365900
     41 H27          2.1540     3.4330    -3.4510 ha         1 A2T       0.121000
     42 H31          2.9200     4.2490    -5.6570 ha         1 A2T       0.115500
     43 H351         4.1390     3.7190    -7.7600 hc         1 A2T       0.049700
     44 H352         4.3000     2.0640    -8.3180 hc         1 A2T       0.049700
     45 H371         1.7100     3.7070    -8.4090 hc         1 A2T       0.040700
     46 H372         1.8720     2.0440    -8.9710 hc         1 A2T       0.040700
     47 H391         3.4000     4.4490   -10.1160 hc         1 A2T       0.038200
     48 H392         3.5630     2.7850   -10.6790 hc         1 A2T       0.038200
     49 H421         0.9730     4.4350   -10.7740 hc         1 A2T       0.036700
     50 H422         1.1350     2.7710   -11.3370 hc         1 A2T       0.036700
     51 H431         2.8010     3.5120   -13.0730 hc         1 A2T       0.032367
     52 H432         1.2510     4.3640   -13.2480 hc         1 A2T       0.032367
     53 H433         2.6370     5.1910   -12.5060 hc         1 A2T       0.032367
     54 H30          3.2400     0.1780    -7.0620 ha         1 A2T       0.115500
     55 H26          2.4960    -0.6490    -4.8590 ha         1 A2T       0.121000
     56 H21          0.2940    -1.9970    -1.4990 h1         1 A2T       0.039700
     57 H251        -0.9390    -0.0750    -0.5250 hc         1 A2T       0.063200
     58 H252         0.5520     0.5450     0.1730 hc         1 A2T       0.063200
     59 H291        -0.6810    -0.7410     1.8390 h1         1 A2T       0.028700
     60 H292        -0.7670    -2.1570     0.7820 h1         1 A2T       0.028700
     61 H341         2.0480    -2.9900     3.0970 h1         1 A2T       0.029700
     62 H342         0.4240    -3.4890     2.6230 h1         1 A2T       0.029700
     63 H361        -0.5510    -1.5610     3.8590 hc         1 A2T       0.046200
     64 H362         1.0540    -0.9380     4.2050 hc         1 A2T       0.046200
     65 H38          0.0430    -2.0130     6.1490 hc         1 A2T       0.045700
     66 H411         2.4160    -3.7170     5.2270 hc         1 A2T       0.031867
     67 H412         2.5340    -2.0890     5.9330 hc         1 A2T       0.031867
     68 H413         1.8850    -3.4310     6.8940 hc         1 A2T       0.031867
     69 H401        -1.4060    -3.6850     4.9940 hc         1 A2T       0.031867
     70 H402        -0.4670    -4.4030     6.3150 hc         1 A2T       0.031867
     71 H403         0.0250    -4.6760     4.6330 hc         1 A2T       0.031867
     72 H281         1.4180    -3.4130     0.2310 h1         1 A2T       0.028700
     73 H282         2.9270    -2.8260     0.9430 h1         1 A2T       0.028700
     74 H241         2.8620    -0.7830    -0.4180 hc         1 A2T       0.063200
     75 H242         2.7310    -2.1950    -1.4660 hc         1 A2T       0.063200
     76 H181         0.2770    -1.6640    -4.0020 h1         1 A2T       0.062700
     77 H182         0.1100     0.0350    -4.4460 h1         1 A2T       0.062700
     78 H15         -1.5900     1.5110    -3.2380 ha         1 A2T       0.119000
     79 H13         -3.9160     1.5620    -2.3860 ha         1 A2T       0.127000
     80 H16         -1.5860    -2.8030    -2.9470 ha         1 A2T       0.119000
     81 H14         -3.9140    -2.7420    -2.1020 ha         1 A2T       0.127000
     82 H451        -7.1460    -0.4920    -2.8870 h1         1 A2T       0.041033
     83 H452        -6.0100     0.8380    -3.1630 h1         1 A2T       0.041033
     84 H453        -7.0070     0.8400    -1.6990 h1         1 A2T       0.041033
     85 H2          -3.7360    -1.1540     0.3910 ha         1 A2T       0.122500
     86 H8          -7.8310    -1.5620    -0.9300 ha         1 A2T       0.122500
     87 H9          -8.3070    -2.7470     1.1950 h4         1 A2T       0.012100
     88 H3          -4.3740    -2.3690     2.4600 h4         1 A2T       0.012100
@<TRIPOS>BOND
     1     1     2 2   
     2     2     3 1   
     3     2    14 1   
     4     3     4 ar  
     5     3    13 ar  
     6     4     5 ar  
     7     4    41 1   
     8     5     6 ar  
     9     5    42 1   
    10     6     7 1   
    11     6    12 ar  
    12     7     8 1   
    13     7    43 1   
    14     7    44 1   
    15     8     9 1   
    16     8    45 1   
    17     8    46 1   
    18     9    10 1   
    19     9    47 1   
    20     9    48 1   
    21    10    11 1   
    22    10    49 1   
    23    10    50 1   
    24    11    51 1   
    25    11    52 1   
    26    11    53 1   
    27    12    13 ar  
    28    12    54 1   
    29    13    55 1   
    30    14    15 1   
    31    14    26 1   
    32    15    16 1   
    33    15    25 1   
    34    15    56 1   
    35    16    17 1   
    36    16    57 1   
    37    16    58 1   
    38    17    18 1   
    39    17    59 1   
    40    17    60 1   
    41    18    19 1   
    42    18    24 1   
    43    19    20 1   
    44    19    61 1   
    45    19    62 1   
    46    20    21 1   
    47    20    63 1   
    48    20    64 1   
    49    21    22 1   
    50    21    23 1   
    51    21    65 1   
    52    22    66 1   
    53    22    67 1   
    54    22    68 1   
    55    23    69 1   
    56    23    70 1   
    57    23    71 1   
    58    24    25 1   
    59    24    72 1   
    60    24    73 1   
    61    25    74 1   
    62    25    75 1   
    63    26    27 1   
    64    26    76 1   
    65    26    77 1   
    66    27    28 ar  
    67    27    30 ar  
    68    28    29 ar  
    69    28    78 1   
    70    29    32 ar  
    71    29    79 1   
    72    30    31 ar  
    73    30    80 1   
    74    31    32 ar  
    75    31    81 1   
    76    32    33 1   
    77    33    34 1   
    78    33    35 1   
    79    34    82 1   
    80    34    83 1   
    81    34    84 1   
    82    35    36 ar  
    83    35    37 ar  
    84    36    40 ar  
    85    36    85 1   
    86    37    38 ar  
    87    37    86 1   
    88    38    39 ar  
    89    38    87 1   
    90    39    40 ar  
    91    40    88 1   
@<TRIPOS>SUBSTRUCTURE
     1 A2T         1 TEMP              0 ****  ****    0 ROOT
