@<TRIPOS>MOLECULE
A2V
   50    52     1     0     0
SMALL
abcg2


@<TRIPOS>ATOM
      1 C1           3.0370     0.1980     0.5790 ca         1 A2V      -0.029300
      2 C2           4.2850     0.8010     0.6960 ca         1 A2V      -0.146500
      3 C3           2.9490    -1.1770     0.4090 ca         1 A2V      -0.146500
      4 C4           1.7960     1.0300     0.6010 c3         1 A2V      -0.285100
      5 C5           5.4090     0.0030     0.6610 ca         1 A2V       0.196000
      6 C6           5.3810    -1.3760     0.4990 ca         1 A2V      -0.144300
      7 C7           4.1120    -1.9220     0.3800 ca         1 A2V       0.196000
      8 C8          -4.2980    -2.6640    -0.6570 c3         1 A2V      -0.096400
      9 C9          -5.2170    -1.4490    -0.6770 c3         1 A2V       0.087000
     10 C10         -1.2330     1.6980    -0.6520 ca         1 A2V       0.203000
     11 C11         -1.8940     1.0030    -1.6530 ca         1 A2V      -0.042000
     12 C12         -1.7680     1.7120     0.6300 ca         1 A2V      -0.106000
     13 C13         -2.9400     1.0370     0.9250 ca         1 A2V      -0.116300
     14 C14         -3.6020     0.3260    -0.0830 ca         1 A2V       0.000000
     15 C15         -3.5290     1.0260     2.3000 c6         1 A2V      -0.026100
     16 C16         -3.0650     0.3200    -1.3690 ca         1 A2V      -0.142000
     17 C17          6.6390    -2.1880     0.4770 c3         1 A2V      -0.039800
     18 C18         -5.0420     1.0420     2.1840 c6         1 A2V      -0.159400
     19 C19         -5.5370    -0.0930     1.3250 c          1 A2V       0.570000
     20 C20         -4.7870    -3.7340    -1.6220 c3         1 A2V      -0.089100
     21 F1           6.6090     0.5880     0.7910 f          1 A2V      -0.171000
     22 F2           4.0010    -3.2500     0.2270 f          1 A2V      -0.171000
     23 N1          -4.7790    -0.3850     0.2200 n          1 A2V      -0.223400
     24 N2          -0.0360     2.4000    -0.9540 nu         1 A2V      -0.877100
     25 O1           2.3940     2.5200    -1.5050 o          1 A2V      -0.515000
     26 O2          -6.5600    -0.7000     1.5850 o          1 A2V      -0.534000
     27 O3           1.1340     0.3750    -1.8690 o          1 A2V      -0.515000
     28 S            1.3910     1.5620    -1.0740 s6         1 A2V       1.175100
     29 H1           4.3820     1.8710     0.8260 ha         1 A2V       0.144000
     30 H2           1.9910    -1.6690     0.3100 ha         1 A2V       0.144000
     31 H3           0.9380     0.4720     0.9760 h1         1 A2V       0.099200
     32 H4           1.9120     1.9360     1.1980 h1         1 A2V       0.099200
     33 H5          -3.2770    -2.3750    -0.9180 hc         1 A2V       0.049700
     34 H6          -4.2590    -3.0620     0.3600 hc         1 A2V       0.049700
     35 H7          -5.3160    -1.0550    -1.6910 h1         1 A2V       0.063700
     36 H8          -6.2180    -1.7430    -0.3730 h1         1 A2V       0.063700
     37 H9          -1.5090     1.0030    -2.6630 ha         1 A2V       0.144000
     38 H10         -1.2610     2.2560     1.4210 ha         1 A2V       0.112000
     39 H11         -3.2060     0.1270     2.8350 hc         1 A2V       0.060700
     40 H12         -3.1760     1.8790     2.8790 hc         1 A2V       0.060700
     41 H13         -3.5520    -0.2070    -2.1770 ha         1 A2V       0.132000
     42 H14          7.1100    -2.2080     1.4610 hc         1 A2V       0.055033
     43 H15          6.4500    -3.2170     0.1830 hc         1 A2V       0.055033
     44 H16          7.3640    -1.7730    -0.2220 hc         1 A2V       0.055033
     45 H17         -5.5220     0.9680     3.1570 hc         1 A2V       0.079700
     46 H18         -5.3690     1.9820     1.7270 hc         1 A2V       0.079700
     47 H19         -5.7870    -4.0820    -1.3590 hc         1 A2V       0.036367
     48 H20         -4.8270    -3.3550    -2.6450 hc         1 A2V       0.036367
     49 H21         -4.1240    -4.5990    -1.6180 hc         1 A2V       0.036367
     50 H22          0.0800     3.2920    -0.4820 hn         1 A2V       0.490000
@<TRIPOS>BOND
     1     1     2 ar  
     2     1     3 ar  
     3     1     4 1   
     4     2     5 ar  
     5     2    29 1   
     6     3     7 ar  
     7     3    30 1   
     8     4    28 1   
     9     4    31 1   
    10     4    32 1   
    11     5     6 ar  
    12     5    21 1   
    13     6     7 ar  
    14     6    17 1   
    15     7    22 1   
    16     8     9 1   
    17     8    20 1   
    18     8    33 1   
    19     8    34 1   
    20     9    23 1   
    21     9    35 1   
    22     9    36 1   
    23    10    11 ar  
    24    10    12 ar  
    25    10    24 1   
    26    11    16 ar  
    27    11    37 1   
    28    12    13 ar  
    29    12    38 1   
    30    13    14 ar  
    31    13    15 1   
    32    14    16 ar  
    33    14    23 1   
    34    15    18 1   
    35    15    39 1   
    36    15    40 1   
    37    16    41 1   
    38    17    42 1   
    39    17    43 1   
    40    17    44 1   
    41    18    19 1   
    42    18    45 1   
    43    18    46 1   
    44    19    23 1   
    45    19    26 2   
    46    20    47 1   
    47    20    48 1   
    48    20    49 1   
    49    24    28 1   
    50    24    50 1   
    51    25    28 2   
    52    27    28 2   
@<TRIPOS>SUBSTRUCTURE
     1 A2V         1 TEMP              0 ****  ****    0 ROOT
