@<TRIPOS>MOLECULE
A2V
   50    52     1     0     0
SMALL
No Charge or Current Charge


@<TRIPOS>ATOM
      1 C1           3.2330    -0.2650     0.2880 ca         1 A2V      -0.029300
      2 C2           4.3240     0.0500     1.1150 ca         1 A2V      -0.146500
      3 C3           3.4150    -1.1670    -0.7740 ca         1 A2V      -0.146500
      4 C4           1.8670     0.3520     0.5460 c3         1 A2V      -0.285100
      5 C5           5.5830    -0.5240     0.8780 ca         1 A2V       0.196000
      6 C6           5.7790    -1.4230    -0.1910 ca         1 A2V      -0.144300
      7 C7           4.6750    -1.7400    -1.0100 ca         1 A2V       0.196000
      8 C8          -4.4760    -2.7410     0.2200 c3         1 A2V      -0.096400
      9 C9          -5.1140    -1.6490    -0.6670 c3         1 A2V       0.087000
     10 C10         -1.1540     1.6950     0.0420 ca         1 A2V       0.203000
     11 C11         -1.3810     0.6510    -0.8770 ca         1 A2V      -0.042000
     12 C12         -2.2030     2.0830     0.8890 ca         1 A2V      -0.106000
     13 C13         -3.4470     1.4250     0.8520 ca         1 A2V      -0.116300
     14 C14         -3.6500     0.3180    -0.0040 ca         1 A2V       0.000000
     15 C15         -4.5750     1.9020     1.7610 c6         1 A2V      -0.026100
     16 C16         -2.6200    -0.0130    -0.9140 ca         1 A2V      -0.142000
     17 C17          7.1500    -2.0510    -0.4460 c3         1 A2V      -0.039800
     18 C18         -5.9330     1.7380     1.0560 c6         1 A2V      -0.159400
     19 C19         -6.1060     0.3230     0.5000 c          1 A2V       0.570000
     20 C20         -4.6340    -4.1580    -0.3650 c3         1 A2V      -0.089100
     21 F1           6.6110    -0.2030     1.6970 f          1 A2V      -0.171000
     22 F2           4.8140    -2.6100    -2.0360 f          1 A2V      -0.171000
     23 N1          -4.9700    -0.2790    -0.1010 n          1 A2V      -0.223400
     24 N2           0.0600     2.3860     0.1260 nu         1 A2V      -0.877100
     25 O1           2.4770     2.9290     0.2450 o          1 A2V      -0.515000
     26 O2          -7.1870    -0.2450     0.6010 o          1 A2V      -0.534000
     27 O3           1.5520     1.6720    -1.7620 o          1 A2V      -0.515000
     28 S            1.5920     1.9070    -0.3170 s6         1 A2V       1.175100
     29 H1           4.2010     0.7420     1.9450 ha         1 A2V       0.144000
     30 H2           2.5820    -1.4280    -1.4210 ha         1 A2V       0.144000
     31 H3           1.0710    -0.3250     0.2220 h1         1 A2V       0.099200
     32 H4           1.7350     0.5700     1.6110 h1         1 A2V       0.099200
     33 H5          -3.4090    -2.5290     0.3560 hc         1 A2V       0.049700
     34 H6          -4.9370    -2.7100     1.2150 hc         1 A2V       0.049700
     35 H7          -4.6690    -1.6790    -1.6680 h1         1 A2V       0.063700
     36 H8          -6.1740    -1.8910    -0.8100 h1         1 A2V       0.063700
     37 H9          -0.6120     0.3530    -1.5800 ha         1 A2V       0.144000
     38 H10         -2.0540     2.9110     1.5780 ha         1 A2V       0.112000
     39 H11         -4.5660     1.3210     2.6940 hc         1 A2V       0.060700
     40 H12         -4.4310     2.9540     2.0450 hc         1 A2V       0.060700
     41 H13         -2.7520    -0.7950    -1.6550 ha         1 A2V       0.132000
     42 H14          7.2570    -2.9910     0.1080 hc         1 A2V       0.055033
     43 H15          7.3060    -2.2700    -1.5090 hc         1 A2V       0.055033
     44 H16          7.9660    -1.3870    -0.1370 hc         1 A2V       0.055033
     45 H17         -6.7880     2.0200     1.6830 hc         1 A2V       0.079700
     46 H18         -5.9000     2.4040     0.1840 hc         1 A2V       0.079700
     47 H19         -5.6940    -4.4160    -0.4780 hc         1 A2V       0.036367
     48 H20         -4.1530    -4.2280    -1.3480 hc         1 A2V       0.036367
     49 H21         -4.1690    -4.8990     0.2970 hc         1 A2V       0.036367
     50 H22          0.1810     3.0540     0.8760 hn         1 A2V       0.490000
@<TRIPOS>BOND
     1     1     2 ar  
     2     1     3 ar  
     3     1     4 1   
     4     2     5 ar  
     5     2    29 1   
     6     3     7 ar  
     7     3    30 1   
     8     4    28 1   
     9     4    31 1   
    10     4    32 1   
    11     5     6 ar  
    12     5    21 1   
    13     6     7 ar  
    14     6    17 1   
    15     7    22 1   
    16     8     9 1   
    17     8    20 1   
    18     8    33 1   
    19     8    34 1   
    20     9    23 1   
    21     9    35 1   
    22     9    36 1   
    23    10    11 ar  
    24    10    12 ar  
    25    10    24 1   
    26    11    16 ar  
    27    11    37 1   
    28    12    13 ar  
    29    12    38 1   
    30    13    14 ar  
    31    13    15 1   
    32    14    16 ar  
    33    14    23 1   
    34    15    18 1   
    35    15    39 1   
    36    15    40 1   
    37    16    41 1   
    38    17    42 1   
    39    17    43 1   
    40    17    44 1   
    41    18    19 1   
    42    18    45 1   
    43    18    46 1   
    44    19    23 1   
    45    19    26 2   
    46    20    47 1   
    47    20    48 1   
    48    20    49 1   
    49    24    28 1   
    50    24    50 1   
    51    25    28 2   
    52    27    28 2   
@<TRIPOS>SUBSTRUCTURE
     1 A2V         1 TEMP              0 ****  ****    0 ROOT
