@<TRIPOS>MOLECULE
A2W
   39    42     1     0     0
SMALL
bcc


@<TRIPOS>ATOM
      1 C10         -3.7670     1.3050    -0.9090 ca         1 A2W      -0.128000
      2 C13         -5.8290     0.2890     0.6510 ca         1 A2W      -0.113000
      3 C15         -1.7190    -1.1000     0.9520 cc         1 A2W      -0.111300
      4 C20          2.4240    -3.1910    -1.3950 cc         1 A2W       0.291200
      5 C22          2.8480    -2.6210     0.6080 cd         1 A2W       0.385400
      6 C24          3.5540     1.2790     0.7760 ca         1 A2W      -0.171500
      7 C02          3.7040     2.0280    -0.3740 ca         1 A2W       0.147900
      8 C03          2.6690     2.2050    -1.2730 ca         1 A2W      -0.171500
      9 C04          1.4490     1.6060    -1.0070 ca         1 A2W      -0.076500
     10 C05          1.2590     0.8370     0.1420 ca         1 A2W      -0.135500
     11 C06         -0.0460     0.2240     0.4070 cd         1 A2W       0.403800
     12 C09         -3.4900     0.4260     0.1320 ca         1 A2W       0.011800
     13 C11         -5.0800     1.6750    -1.1580 ca         1 A2W      -0.113000
     14 C12         -6.1160     1.1670    -0.3850 ca         1 A2W      -0.126000
     15 C14         -4.5180    -0.0780     0.9200 ca         1 A2W      -0.128000
     16 C16         -0.3510    -1.0300     0.9940 cd         1 A2W      -0.291600
     17 C19          1.2230    -2.8750    -0.8270 cd         1 A2W      -0.256600
     18 C23          2.3250     0.6900     1.0280 ca         1 A2W      -0.076500
     19 N07         -1.1520     0.8490     0.0480 nc         1 A2W      -0.508800
     20 N08         -2.1570     0.0450     0.3860 na         1 A2W       0.189300
     21 N18          1.5120    -2.5130     0.4580 na         1 A2W      -0.187900
     22 N21          3.4330    -3.0290    -0.4880 nc         1 A2W      -0.670000
     23 H1          -2.9650     1.6940    -1.5210 ha         1 A2W       0.149000
     24 H2          -6.6250    -0.1040     1.2690 ha         1 A2W       0.139000
     25 H3          -2.3850    -1.8930     1.2510 h4         1 A2W       0.178000
     26 H4           1.1320    -1.8030     2.3520 h1         1 A2W       0.059700
     27 H5          -0.0320    -2.9730     1.7830 h1         1 A2W       0.059700
     28 H7           3.3400    -2.3860     1.5410 h5         1 A2W       0.049100
     29 H8           4.3760     1.1630     1.4700 ha         1 A2W       0.150500
     30 H9           2.8140     2.7960    -2.1680 ha         1 A2W       0.150500
     31 H10          0.6360     1.7320    -1.7100 ha         1 A2W       0.137000
     32 H11         -5.2910     2.3560    -1.9710 ha         1 A2W       0.139000
     33 H12         -7.1390     1.4570    -0.5860 ha         1 A2W       0.139000
     34 H13         -4.3080    -0.7390     1.7510 ha         1 A2W       0.149000
     35 H14          0.2180    -2.8770    -1.2160 h4         1 A2W       0.174000
     36 H15          2.2010     0.1310     1.9460 ha         1 A2W       0.137000
     37 C17          0.5600    -2.1090     1.4760 c3         1 A2W       0.135600
     38 F01          4.8890     2.6040    -0.6270 f          1 A2W      -0.141900
     39 H6           2.6090    -3.5240    -2.4040 h4         1 A2W       0.036100
@<TRIPOS>BOND
     1     1    12 ar  
     2     1    13 ar  
     3     1    23 1   
     4     2    14 ar  
     5     2    15 ar  
     6     2    24 1   
     7     3    16 2   
     8     3    20 1   
     9     3    25 1   
    10     4    17 2   
    11     4    22 1   
    12     4    39 1   
    13     5    21 1   
    14     5    22 2   
    15     5    28 1   
    16     6     7 ar  
    17     6    18 ar  
    18     6    29 1   
    19     7     8 ar  
    20     7    38 1   
    21     8     9 ar  
    22     8    30 1   
    23     9    10 ar  
    24     9    31 1   
    25    10    11 1   
    26    10    18 ar  
    27    11    16 1   
    28    11    19 2   
    29    12    15 ar  
    30    12    20 1   
    31    13    14 ar  
    32    13    32 1   
    33    14    33 1   
    34    15    34 1   
    35    16    37 1   
    36    17    21 1   
    37    17    35 1   
    38    18    36 1   
    39    19    20 1   
    40    21    37 1   
    41    26    37 1   
    42    27    37 1   
@<TRIPOS>SUBSTRUCTURE
     1 A2W         1 TEMP              0 ****  ****    0 ROOT
