@<TRIPOS>MOLECULE
A2W
   39    42     1     0     0
SMALL
No Charge or Current Charge


@<TRIPOS>ATOM
      1 C10         -3.9040     1.0940    -1.0550 ca         1 A2W      -0.110000
      2 C13         -5.8270     0.5060     0.9080 ca         1 A2W      -0.095000
      3 C15         -1.7830    -1.1420     0.8780 cc         1 A2W      -0.144000
      4 C20          2.5000    -3.0630    -1.5620 cc         1 A2W       0.225900
      5 C22          2.9180    -2.4770     0.4670 cd         1 A2W       0.385400
      6 C24          3.4910     1.3030     1.0350 ca         1 A2W      -0.153500
      7 C02          3.8190     1.9180    -0.1820 ca         1 A2W       0.183000
      8 C03          2.8710     2.0000    -1.2110 ca         1 A2W      -0.153500
      9 C04          1.5890     1.4520    -1.0280 ca         1 A2W      -0.058500
     10 C05          1.2560     0.8020     0.1800 ca         1 A2W      -0.135500
     11 C06         -0.0950     0.2480     0.3760 cd         1 A2W       0.338500
     12 C09         -3.5090     0.4340     0.1300 ca         1 A2W       0.011800
     13 C11         -5.2480     1.4550    -1.2560 ca         1 A2W      -0.095000
     14 C12         -6.2100     1.1610    -0.2750 ca         1 A2W      -0.108000
     15 C14         -4.4840     0.1430     1.1100 ca         1 A2W      -0.110000
     16 C16         -0.4170    -1.0400     0.8990 cd         1 A2W      -0.226300
     17 C19          1.2750    -2.8440    -0.9960 cd         1 A2W      -0.224000
     18 C23          2.2100     0.7540     1.2200 ca         1 A2W      -0.058500
     19 N07         -1.1600     0.9380     0.0100 nc         1 A2W      -0.508800
     20 N08         -2.1720     0.0690     0.3300 na         1 A2W       0.240000
     21 N18          1.5410    -2.4690     0.3090 na         1 A2W      -0.166500
     22 N21          3.5080    -2.8420    -0.6650 nc         1 A2W      -0.670000
     23 H1          -3.1690     1.3240    -1.8230 ha         1 A2W       0.131000
     24 H2          -6.5710     0.2800     1.6690 ha         1 A2W       0.121000
     25 H3          -2.4680    -1.9310     1.1610 h4         1 A2W       0.160000
     26 H4           1.0740    -1.7850     2.2440 h1         1 A2W       0.059700
     27 H5          -0.0110    -3.0170     1.5950 h1         1 A2W       0.059700
     28 H7           3.4010    -2.2160     1.4020 h5         1 A2W       0.049100
     29 H8           4.2260     1.2590     1.8340 ha         1 A2W       0.132500
     30 H9           3.1280     2.4880    -2.1480 ha         1 A2W       0.132500
     31 H10          0.8580     1.5190    -1.8310 ha         1 A2W       0.119000
     32 H11         -5.5440     1.9620    -2.1720 ha         1 A2W       0.121000
     33 H12         -7.2490     1.4400    -0.4300 ha         1 A2W       0.121000
     34 H13         -4.2010    -0.3560     2.0340 ha         1 A2W       0.131000
     35 H14          0.2770    -2.9210    -1.4130 h4         1 A2W       0.156000
     36 H15          1.9580     0.3030     2.1760 ha         1 A2W       0.119000
     37 C17          0.5510    -2.1110     1.3370 c3         1 A2W       0.164900
     38 F01          5.0500     2.4470    -0.3580 f          1 A2W      -0.177000
     39 H6           2.7260    -3.3710    -2.5750 h4         1 A2W       0.036100
@<TRIPOS>BOND
     1     1    12 ar  
     2     1    13 ar  
     3     1    23 1   
     4     2    14 ar  
     5     2    15 ar  
     6     2    24 1   
     7     3    16 2   
     8     3    20 1   
     9     3    25 1   
    10     4    17 2   
    11     4    22 1   
    12     4    39 1   
    13     5    21 1   
    14     5    22 2   
    15     5    28 1   
    16     6     7 ar  
    17     6    18 ar  
    18     6    29 1   
    19     7     8 ar  
    20     7    38 1   
    21     8     9 ar  
    22     8    30 1   
    23     9    10 ar  
    24     9    31 1   
    25    10    11 1   
    26    10    18 ar  
    27    11    16 1   
    28    11    19 2   
    29    12    15 ar  
    30    12    20 1   
    31    13    14 ar  
    32    13    32 1   
    33    14    33 1   
    34    15    34 1   
    35    16    37 1   
    36    17    21 1   
    37    17    35 1   
    38    18    36 1   
    39    19    20 1   
    40    21    37 1   
    41    26    37 1   
    42    27    37 1   
@<TRIPOS>SUBSTRUCTURE
     1 A2W         1 TEMP              0 ****  ****    0 ROOT
