@<TRIPOS>MOLECULE
A2X
   45    47     1     0     0
SMALL
No Charge or Current Charge


@<TRIPOS>ATOM
      1 C01          7.7970     0.1040    -1.9400 ca         1 A2X      -0.102500
      2 C02          7.2420     1.3010    -2.4240 ca         1 A2X      -0.113000
      3 C03          6.2210     1.9440    -1.7020 ca         1 A2X      -0.102500
      4 C04          5.7550     1.3890    -0.4970 ca         1 A2X      -0.101500
      5 C05          6.3070     0.1870    -0.0130 ca         1 A2X      -0.101000
      6 C06          7.3310    -0.4520    -0.7350 ca         1 A2X      -0.101500
      7 S07          5.7240    -0.5310     1.5210 ss         1 A2X       0.044000
      8 C08          3.9530    -0.4600     1.2550 ca         1 A2X      -0.167000
      9 C09          3.3930    -0.9060     0.0450 ca         1 A2X      -0.036000
     10 C10          2.0030    -0.8460    -0.1490 ca         1 A2X      -0.164500
     11 C11          1.1540    -0.3450     0.8560 ca         1 A2X       0.004000
     12 C12          1.7250     0.0950     2.0710 ca         1 A2X      -0.164500
     13 C13          3.1160     0.0350     2.2680 ca         1 A2X      -0.036000
     14 N14         -0.2420    -0.3170     0.5830 ns         1 A2X      -0.144000
     15 C15         -1.3340     0.1230     1.3200 c          1 A2X       0.621100
     16 O16         -1.2570     0.6140     2.4410 o          1 A2X      -0.557100
     17 C17         -2.6730    -0.0620     0.5870 c3         1 A2X      -0.081400
     18 S18         -4.1560     0.5170     1.5550 ss         1 A2X      -0.210300
     19 C19         -5.5500     0.1850     0.4800 ca         1 A2X       0.222300
     20 N20         -6.7670     0.5200     0.9590 nb         1 A2X      -0.196500
     21 C21         -7.8290     0.2780     0.1660 ca         1 A2X       0.145300
     22 C22         -7.6710    -0.2960    -1.1070 ca         1 A2X      -0.230000
     23 C23         -6.3670    -0.6130    -1.5210 ca         1 A2X       0.145300
     24 N24         -5.3050    -0.3710    -0.7270 nb         1 A2X      -0.196500
     25 C25         -6.0890    -1.2320    -2.8780 c3         1 A2X      -0.151900
     26 C26         -9.1950     0.6600     0.7030 c3         1 A2X      -0.151900
     27 H011         8.5880    -0.3930    -2.4980 ha         1 A2X       0.112500
     28 H021         7.6020     1.7310    -3.3560 ha         1 A2X       0.113000
     29 H031         5.7920     2.8720    -2.0740 ha         1 A2X       0.112500
     30 H041         4.9670     1.8920     0.0590 ha         1 A2X       0.121500
     31 H061         7.7640    -1.3780    -0.3650 ha         1 A2X       0.121500
     32 H091         4.0320    -1.2990    -0.7430 ha         1 A2X       0.129000
     33 H101         1.5840    -1.1930    -1.0920 ha         1 A2X       0.132000
     34 H121         1.1130     0.4850     2.8780 ha         1 A2X       0.132000
     35 H131         3.5440     0.3780     3.2080 ha         1 A2X       0.129000
     36 H141        -0.4830    -0.6910    -0.3260 hn         1 A2X       0.155000
     37 H171        -2.6170     0.4910    -0.3580 h1         1 A2X       0.095200
     38 H172        -2.7840    -1.1290     0.3580 h1         1 A2X       0.095200
     39 H221        -8.5270    -0.4860    -1.7490 ha         1 A2X       0.133000
     40 H252        -5.7800    -0.4650    -3.5980 hc         1 A2X       0.057367
     41 H253        -5.2890    -1.9800    -2.8190 hc         1 A2X       0.057367
     42 H251        -6.9790    -1.7310    -3.2790 hc         1 A2X       0.057367
     43 H262        -9.3880     1.7280     0.5500 hc         1 A2X       0.057367
     44 H263        -9.9930     0.1000     0.2010 hc         1 A2X       0.057367
     45 H261        -9.2740     0.4540     1.7770 hc         1 A2X       0.057367
@<TRIPOS>BOND
     1     1     2 ar  
     2     1     6 ar  
     3     1    27 1   
     4     2     3 ar  
     5     2    28 1   
     6     3     4 ar  
     7     3    29 1   
     8     4     5 ar  
     9     4    30 1   
    10     5     6 ar  
    11     5     7 1   
    12     6    31 1   
    13     7     8 1   
    14     8     9 ar  
    15     8    13 ar  
    16     9    10 ar  
    17     9    32 1   
    18    10    11 ar  
    19    10    33 1   
    20    11    12 ar  
    21    11    14 1   
    22    12    13 ar  
    23    12    34 1   
    24    13    35 1   
    25    14    15 1   
    26    14    36 1   
    27    15    16 2   
    28    15    17 1   
    29    17    18 1   
    30    17    37 1   
    31    17    38 1   
    32    18    19 1   
    33    19    20 ar  
    34    19    24 ar  
    35    20    21 ar  
    36    21    22 ar  
    37    21    26 1   
    38    22    23 ar  
    39    22    39 1   
    40    23    24 ar  
    41    23    25 1   
    42    25    40 1   
    43    25    41 1   
    44    25    42 1   
    45    26    43 1   
    46    26    44 1   
    47    26    45 1   
@<TRIPOS>SUBSTRUCTURE
     1 A2X         1 TEMP              0 ****  ****    0 ROOT
