@<TRIPOS>MOLECULE
A2X
   45    47     1     0     0
SMALL
bcc


@<TRIPOS>ATOM
      1 C01          8.1860     0.9020    -1.2870 ca         1 A2X      -0.120500
      2 C02          7.4610     1.9250    -1.8860 ca         1 A2X      -0.131000
      3 C03          6.1220     2.0930    -1.5590 ca         1 A2X      -0.120500
      4 C04          5.5080     1.2540    -0.6390 ca         1 A2X      -0.119500
      5 C05          6.2350     0.2250    -0.0490 ca         1 A2X       0.025900
      6 C06          7.5780     0.0500    -0.3780 ca         1 A2X      -0.119500
      7 S07          5.5560    -0.8750     1.1630 ss         1 A2X      -0.209800
      8 C08          3.8150    -0.7590     0.8860 ca         1 A2X      -0.040100
      9 C09          3.2310    -1.3370    -0.2390 ca         1 A2X      -0.054000
     10 C10          1.8650    -1.2700    -0.4220 ca         1 A2X      -0.182500
     11 C11          1.0440    -0.6440     0.5220 ca         1 A2X       0.096600
     12 C12          1.6260    -0.0750     1.6540 ca         1 A2X      -0.182500
     13 C13          3.0030    -0.1330     1.8210 ca         1 A2X      -0.054000
     14 N14         -0.3250    -0.6450     0.2530 ns         1 A2X      -0.470100
     15 C15         -1.3380    -0.0770     0.9520 c          1 A2X       0.688100
     16 O16         -1.2020     0.5720     1.9710 o          1 A2X      -0.557100
     17 C17         -2.6970    -0.3390     0.3390 c3         1 A2X      -0.129300
     18 S18         -3.9060     0.6630     1.2300 ss         1 A2X      -0.162400
     19 C19         -5.3780     0.2700     0.3550 ca         1 A2X       0.748300
     20 N20         -6.4400     0.9100     0.8230 nb         1 A2X      -0.722500
     21 C21         -7.5980     0.6660     0.2160 ca         1 A2X       0.473600
     22 C22         -7.6680    -0.2220    -0.8530 ca         1 A2X      -0.378600
     23 C23         -6.4970    -0.8390    -1.2640 ca         1 A2X       0.473600
     24 N24         -5.3390    -0.5850    -0.6470 nb         1 A2X      -0.722500
     25 C25         -6.4630    -1.8060    -2.4000 c3         1 A2X      -0.151900
     26 C26         -8.8020     1.3880     0.7230 c3         1 A2X      -0.151900
     27 H011         9.2290     0.7560    -1.5360 ha         1 A2X       0.130500
     28 H021         7.9360     2.5830    -2.6020 ha         1 A2X       0.131000
     29 H031         5.5470     2.8870    -2.0170 ha         1 A2X       0.130500
     30 H041         4.4660     1.4060    -0.3890 ha         1 A2X       0.139500
     31 H061         8.1490    -0.7550     0.0700 ha         1 A2X       0.139500
     32 H091         3.8440    -1.8370    -0.9780 ha         1 A2X       0.147000
     33 H101         1.4260    -1.7170    -1.3060 ha         1 A2X       0.150000
     34 H121         1.0300     0.4150     2.4050 ha         1 A2X       0.150000
     35 H131         3.4430     0.3210     2.6990 ha         1 A2X       0.147000
     36 H141        -0.5900    -1.1360    -0.5890 hn         1 A2X       0.321500
     37 H171        -2.7020    -0.0900    -0.7230 h1         1 A2X       0.095200
     38 H172        -2.9420    -1.3990     0.4260 h1         1 A2X       0.095200
     39 H221        -8.6080    -0.4230    -1.3470 ha         1 A2X       0.151000
     40 H252        -5.8130    -1.4350    -3.1940 hc         1 A2X       0.057367
     41 H253        -6.0560    -2.7630    -2.0730 hc         1 A2X       0.057367
     42 H251        -7.4540    -1.9720    -2.8180 hc         1 A2X       0.057367
     43 H262        -8.7180     2.4540     0.5090 hc         1 A2X       0.057367
     44 H263        -9.7160     1.0200     0.2630 hc         1 A2X       0.057367
     45 H261        -8.8860     1.2810     1.8050 hc         1 A2X       0.057367
@<TRIPOS>BOND
     1     1     2 ar  
     2     1     6 ar  
     3     1    27 1   
     4     2     3 ar  
     5     2    28 1   
     6     3     4 ar  
     7     3    29 1   
     8     4     5 ar  
     9     4    30 1   
    10     5     6 ar  
    11     5     7 1   
    12     6    31 1   
    13     7     8 1   
    14     8     9 ar  
    15     8    13 ar  
    16     9    10 ar  
    17     9    32 1   
    18    10    11 ar  
    19    10    33 1   
    20    11    12 ar  
    21    11    14 1   
    22    12    13 ar  
    23    12    34 1   
    24    13    35 1   
    25    14    15 1   
    26    14    36 1   
    27    15    16 2   
    28    15    17 1   
    29    17    18 1   
    30    17    37 1   
    31    17    38 1   
    32    18    19 1   
    33    19    20 ar  
    34    19    24 ar  
    35    20    21 ar  
    36    21    22 ar  
    37    21    26 1   
    38    22    23 ar  
    39    22    39 1   
    40    23    24 ar  
    41    23    25 1   
    42    25    40 1   
    43    25    41 1   
    44    25    42 1   
    45    26    43 1   
    46    26    44 1   
    47    26    45 1   
@<TRIPOS>SUBSTRUCTURE
     1 A2X         1 TEMP              0 ****  ****    0 ROOT
