@<TRIPOS>MOLECULE
A2Y
   45    49     1     0     0
SMALL
bcc


@<TRIPOS>ATOM
      1 O            2.8410    -1.8100     0.2440 os         1 A2Y      -0.073100
      2 S            4.8440     1.5810    -0.2300 ss         1 A2Y      -0.026800
      3 C1           6.4610     1.2140    -0.6410 cc         1 A2Y      -0.070100
      4 N1           1.5380    -2.0220     0.5500 nc         1 A2Y      -0.325300
      5 C2           6.6750    -0.1300    -0.7170 cd         1 A2Y      -0.157000
      6 N2          -1.2080    -0.3880    -0.2660 ny         1 A2Y      -0.769000
      7 C3           5.5100    -0.8830    -0.4390 cd         1 A2Y      -0.060000
      8 C4           1.9390     0.1860     0.4230 cd         1 A2Y      -0.427600
      9 C9           0.9990    -0.8420     0.6600 cd         1 A2Y       0.255600
     10 C10         -2.6850    -0.0830    -0.1330 c6         1 A2Y       0.156200
     11 C11          3.0870    -0.4970     0.1640 cc         1 A2Y       0.446200
     12 C12          4.4290    -0.0900    -0.1560 cc         1 A2Y      -0.209600
     13 C61         -3.1970     0.1580    -1.5540 c6         1 A2Y      -0.091400
     14 C62         -2.8880     1.1690     0.7150 c6         1 A2Y      -0.091400
     15 C63         -3.4110    -1.2710     0.4930 c6         1 A2Y      -0.091400
     16 C71         -4.6920     0.4780    -1.4980 c6         1 A2Y      -0.052700
     17 C72         -4.3900     1.4830     0.7640 c6         1 A2Y      -0.052700
     18 C73         -4.9110    -0.9520     0.5380 c6         1 A2Y      -0.052700
     19 C81         -4.9110     1.7320    -0.6510 c6         1 A2Y      -0.080400
     20 C82         -5.1330     0.3000     1.3890 c6         1 A2Y      -0.080400
     21 C83         -5.4340    -0.7070    -0.8780 c6         1 A2Y      -0.080400
     22 H44          1.7810     1.2510     0.4510 ha         1 A2Y       0.183000
     23 H1           7.1690     2.0110    -0.8050 h4         1 A2Y       0.187000
     24 H2           7.6310    -0.5680    -0.9660 ha         1 A2Y       0.175000
     25 H3           5.4760    -1.9630    -0.4520 ha         1 A2Y       0.172000
     26 H15         -0.6100     0.0930     1.6940 hx         1 A2Y       0.116200
     27 H25         -0.8390    -1.6370     1.3810 hx         1 A2Y       0.116200
     28 H161        -2.6470     0.9850    -2.0150 hc         1 A2Y       0.059867
     29 H261        -3.0260    -0.7300    -2.1710 hc         1 A2Y       0.059867
     30 H362        -2.5210     1.0200     1.7340 hc         1 A2Y       0.059867
     31 H462        -2.3350     2.0140     0.2900 hc         1 A2Y       0.059867
     32 H563        -3.2280    -2.1800    -0.0880 hc         1 A2Y       0.059867
     33 H663        -3.0540    -1.4530     1.5110 hc         1 A2Y       0.059867
     34 H171        -5.0480     0.6500    -2.5170 hc         1 A2Y       0.082700
     35 H272        -4.5320     2.3760     1.3780 hc         1 A2Y       0.082700
     36 H373        -5.4310    -1.8020     0.9850 hc         1 A2Y       0.082700
     37 H181        -4.3960     2.5870    -1.0990 hc         1 A2Y       0.064033
     38 H281        -5.9740     1.9840    -0.6190 hc         1 A2Y       0.064033
     39 H382        -4.7810     0.1310     2.4120 hc         1 A2Y       0.064033
     40 H482        -6.2010     0.5230     1.4540 hc         1 A2Y       0.064033
     41 H583        -6.5080    -0.5030    -0.8490 hc         1 A2Y       0.064033
     42 H683        -5.3000    -1.6000    -1.4950 hc         1 A2Y       0.064033
     43 H1N2        -0.7670     0.4050    -0.7390 hn         1 A2Y       0.443800
     44 H2N2        -1.1010    -1.1710    -0.9180 hn         1 A2Y       0.443800
     45 C5          -0.4490    -0.7070     0.9760 c3         1 A2Y       0.102500
@<TRIPOS>BOND
     1     1     4 1   
     2     1    11 1   
     3     2     3 1   
     4     2    12 1   
     5     3     5 2   
     6     3    23 1   
     7     4     9 2   
     8     5     7 1   
     9     5    24 1   
    10     6    10 1   
    11     6    43 1   
    12     6    44 1   
    13     6    45 1   
    14     7    12 2   
    15     7    25 1   
    16     8     9 1   
    17     8    11 2   
    18     8    22 1   
    19     9    45 1   
    20    10    13 1   
    21    10    14 1   
    22    10    15 1   
    23    11    12 1   
    24    13    16 1   
    25    13    28 1   
    26    13    29 1   
    27    14    17 1   
    28    14    30 1   
    29    14    31 1   
    30    15    18 1   
    31    15    32 1   
    32    15    33 1   
    33    16    19 1   
    34    16    21 1   
    35    16    34 1   
    36    17    19 1   
    37    17    20 1   
    38    17    35 1   
    39    18    20 1   
    40    18    21 1   
    41    18    36 1   
    42    19    37 1   
    43    19    38 1   
    44    20    39 1   
    45    20    40 1   
    46    21    41 1   
    47    21    42 1   
    48    26    45 1   
    49    27    45 1   
@<TRIPOS>SUBSTRUCTURE
     1 A2Y         1 TEMP              0 ****  ****    0 ROOT
