@<TRIPOS>MOLECULE
A2Y
   45    49     1     0     0
SMALL
No Charge or Current Charge


@<TRIPOS>ATOM
      1 O            2.9420    -1.6700    -0.6350 os         1 A2Y      -0.028700
      2 S            5.2710     1.4400     0.7080 ss         1 A2Y       0.263000
      3 C1           6.9240     1.0910     0.2090 cc         1 A2Y      -0.197000
      4 N1           1.5100    -1.7830    -0.4430 nc         1 A2Y      -0.325300
      5 C2           6.9960    -0.0970    -0.4790 cd         1 A2Y      -0.139000
      6 N2          -1.2490    -0.4150    -0.5370 ny         1 A2Y      -0.823000
      7 C3           5.7430    -0.7520    -0.6220 cd         1 A2Y      -0.042000
      8 C4           2.2900     0.1310     0.5070 cd         1 A2Y      -0.279000
      9 C9           1.1860    -0.6960     0.2390 cd         1 A2Y       0.190300
     10 C10         -2.7450    -0.2000    -0.2330 c6         1 A2Y       0.128000
     11 C11          3.3540    -0.5010    -0.0450 cc         1 A2Y       0.336500
     12 C12          4.7150    -0.0530    -0.0380 cc         1 A2Y      -0.354500
     13 C61         -3.5170    -0.1750    -1.5970 c6         1 A2Y      -0.091400
     14 C62         -2.9470     1.1460     0.5520 c6         1 A2Y      -0.091400
     15 C63         -3.2540    -1.3760     0.6160 c6         1 A2Y      -0.091400
     16 C71         -5.0270     0.2340    -1.4650 c6         1 A2Y      -0.052700
     17 C72         -4.4540     1.5610     0.7050 c6         1 A2Y      -0.052700
     18 C73         -5.3240    -0.8550     0.8380 c6         1 A2Y      -0.052700
     19 C81         -5.0760     1.6320    -0.7410 c6         1 A2Y      -0.080400
     20 C82         -5.3020     0.5350     1.5310 c6         1 A2Y      -0.080400
     21 C83         -5.8680    -0.7720    -0.6140 c6         1 A2Y      -0.080400
     22 H44          2.2910     1.0740     1.0390 ha         1 A2Y       0.165000
     23 H1           7.7130     1.7870     0.4610 h4         1 A2Y       0.169000
     24 H2           7.9250    -0.4990    -0.8760 ha         1 A2Y       0.157000
     25 H3           5.6220    -1.7010    -1.1390 ha         1 A2Y       0.154000
     26 H15         -0.3010     0.5250     1.1500 hx         1 A2Y       0.116200
     27 H25         -0.5590    -1.2050     1.3400 hx         1 A2Y       0.116200
     28 H161        -3.0240     0.5360    -2.2750 hc         1 A2Y       0.059867
     29 H261        -3.4430    -1.1540    -2.0910 hc         1 A2Y       0.059867
     30 H362        -2.4870     1.0770     1.5470 hc         1 A2Y       0.059867
     31 H462        -2.4100     1.9490     0.0300 hc         1 A2Y       0.059867
     32 H563        -3.1360    -2.3390     0.1030 hc         1 A2Y       0.059867
     33 H663        -2.7560    -1.4310     1.5930 hc         1 A2Y       0.059867
     34 H171        -5.4700     0.3210    -2.4680 hc         1 A2Y       0.082700
     35 H272        -4.5130     2.5490     1.1830 hc         1 A2Y       0.082700
     36 H373        -5.8670    -1.6010     1.4350 hc         1 A2Y       0.082700
     37 H181        -4.5410     2.3830    -1.3400 hc         1 A2Y       0.064033
     38 H281        -6.1160     1.9840    -0.6820 hc         1 A2Y       0.064033
     39 H382        -4.8830     0.4370     2.5420 hc         1 A2Y       0.064033
     40 H482        -6.3290     0.9070     1.6570 hc         1 A2Y       0.064033
     41 H583        -6.9240    -0.4680    -0.6010 hc         1 A2Y       0.064033
     42 H683        -5.8370    -1.7680    -1.0770 hc         1 A2Y       0.064033
     43 H1N2        -0.9460     0.2940    -1.2390 hn         1 A2Y       0.499000
     44 H2N2        -1.1590    -1.3050    -1.0680 hn         1 A2Y       0.499000
     45 C5          -0.2460    -0.4350     0.6300 c3         1 A2Y       0.074300
@<TRIPOS>BOND
     1     1     4 1   
     2     1    11 1   
     3     2     3 1   
     4     2    12 1   
     5     3     5 2   
     6     3    23 1   
     7     4     9 2   
     8     5     7 1   
     9     5    24 1   
    10     6    10 1   
    11     6    43 1   
    12     6    44 1   
    13     6    45 1   
    14     7    12 2   
    15     7    25 1   
    16     8     9 1   
    17     8    11 2   
    18     8    22 1   
    19     9    45 1   
    20    10    13 1   
    21    10    14 1   
    22    10    15 1   
    23    11    12 1   
    24    13    16 1   
    25    13    28 1   
    26    13    29 1   
    27    14    17 1   
    28    14    30 1   
    29    14    31 1   
    30    15    18 1   
    31    15    32 1   
    32    15    33 1   
    33    16    19 1   
    34    16    21 1   
    35    16    34 1   
    36    17    19 1   
    37    17    20 1   
    38    17    35 1   
    39    18    20 1   
    40    18    21 1   
    41    18    36 1   
    42    19    37 1   
    43    19    38 1   
    44    20    39 1   
    45    20    40 1   
    46    21    41 1   
    47    21    42 1   
    48    26    45 1   
    49    27    45 1   
@<TRIPOS>SUBSTRUCTURE
     1 A2Y         1 TEMP              0 ****  ****    0 ROOT
