@<TRIPOS>MOLECULE
A2Z
   27    29     1     0     0
SMALL
abcg2


@<TRIPOS>ATOM
      1 C1           0.1900     2.2490    -0.0500 ca         1 A2Z      -0.053000
      2 N1          -0.8940    -1.3060    -0.0160 n          1 A2Z      -0.275000
      3 O1           3.4030     0.5510    -0.0200 os         1 A2Z      -0.340100
      4 C2          -0.6320     1.1170    -0.0300 ca         1 A2Z      -0.132800
      5 O2           2.1440    -1.3350    -0.0060 os         1 A2Z      -0.348100
      6 C3          -0.0730    -0.1920    -0.0170 ca         1 A2Z       0.133600
      7 C4           1.3180    -0.2500    -0.0050 ca         1 A2Z      -0.015900
      8 C5           2.0960     0.8920    -0.0200 ca         1 A2Z       0.101100
      9 C6           1.5700     2.1660    -0.0470 ca         1 A2Z      -0.132000
     10 C8          -2.2710    -1.2050     0.0360 c          1 A2Z       0.564200
     11 C9          -2.8230     0.1310     0.0290 cc         1 A2Z      -0.299200
     12 C10         -2.0680     1.2460    -0.0100 cd         1 A2Z       0.023600
     13 C12          3.4380    -0.8350     0.2800 c5         1 A2Z       0.373600
     14 C15         -2.7050     2.5990    -0.0230 c3         1 A2Z      -0.062900
     15 C16         -0.3210    -2.6470    -0.0750 c3         1 A2Z       0.073300
     16 H1          -0.2660     3.2290    -0.0590 ha         1 A2Z       0.123000
     17 H6           2.1990     3.0450    -0.0620 ha         1 A2Z       0.140000
     18 H9          -3.9030     0.1950     0.0530 ha         1 A2Z       0.209000
     19 H12          4.1740    -1.3340    -0.3480 h2         1 A2Z       0.066200
     20 H12A         3.6710    -0.9790     1.3410 h2         1 A2Z       0.066200
     21 H15         -2.4160     3.1620    -0.9120 hc         1 A2Z       0.051700
     22 H15A        -3.7890     2.5170    -0.0110 hc         1 A2Z       0.051700
     23 H15B        -2.3990     3.1870     0.8430 hc         1 A2Z       0.051700
     24 H16          0.2250    -2.8830     0.8360 h1         1 A2Z       0.060033
     25 H16A        -1.1300    -3.3580    -0.1830 h1         1 A2Z       0.060033
     26 H16B         0.3380    -2.7440    -0.9330 h1         1 A2Z       0.060033
     27 O3          -2.9850    -2.2010     0.0790 o          1 A2Z      -0.551000
@<TRIPOS>BOND
     1     1     4 ar  
     2     1     9 ar  
     3     1    16 1   
     4     2     6 1   
     5     2    10 1   
     6     2    15 1   
     7     3     8 1   
     8     3    13 1   
     9     4     6 ar  
    10     4    12 1   
    11     5     7 1   
    12     5    13 1   
    13     6     7 ar  
    14     7     8 ar  
    15     8     9 ar  
    16     9    17 1   
    17    10    11 1   
    18    10    27 2   
    19    11    12 2   
    20    11    18 1   
    21    12    14 1   
    22    13    19 1   
    23    13    20 1   
    24    14    21 1   
    25    14    22 1   
    26    14    23 1   
    27    15    24 1   
    28    15    25 1   
    29    15    26 1   
@<TRIPOS>SUBSTRUCTURE
     1 A2Z         1 TEMP              0 ****  ****    0 ROOT
