@<TRIPOS>MOLECULE
A2Z
   27    29     1     0     0
SMALL
No Charge or Current Charge


@<TRIPOS>ATOM
      1 C1           0.2050     2.2810    -0.0870 ca         1 A2Z      -0.053000
      2 N1          -0.9160    -1.3330     0.0190 n          1 A2Z      -0.275000
      3 O1           3.4770     0.6070     0.0830 os         1 A2Z      -0.340100
      4 C2          -0.6290     1.1300    -0.0550 ca         1 A2Z      -0.132800
      5 O2           2.1360    -1.3680     0.1340 os         1 A2Z      -0.348100
      6 C3          -0.0500    -0.1700    -0.0460 ca         1 A2Z       0.133600
      7 C4           1.3670    -0.2430     0.0460 ca         1 A2Z      -0.015900
      8 C5           2.1490     0.8810     0.0240 ca         1 A2Z       0.101100
      9 C6           1.6040     2.1600    -0.0610 ca         1 A2Z      -0.132000
     10 C8          -2.3220    -1.2240     0.1130 c          1 A2Z       0.564200
     11 C9          -2.8610     0.1390     0.0810 cc         1 A2Z      -0.299200
     12 C10         -2.0940     1.2750    -0.0130 cd         1 A2Z       0.023600
     13 C12          3.4950    -0.8400     0.3110 c5         1 A2Z       0.373600
     14 C15         -2.7660     2.6290    -0.0530 c3         1 A2Z      -0.062900
     15 C16         -0.3380    -2.6940    -0.1450 c3         1 A2Z       0.073300
     16 H1          -0.2210     3.2810    -0.1170 ha         1 A2Z       0.123000
     17 H6           2.2450     3.0380    -0.0800 ha         1 A2Z       0.140000
     18 H9          -3.9420     0.1900     0.1330 ha         1 A2Z       0.209000
     19 H12          4.1790    -1.3220    -0.3980 h2         1 A2Z       0.066200
     20 H12A         3.8200    -1.0340     1.3400 h2         1 A2Z       0.066200
     21 H15         -2.4940     3.1760    -0.9630 hc         1 A2Z       0.051700
     22 H15A        -3.8590     2.5440    -0.0400 hc         1 A2Z       0.051700
     23 H15B        -2.4770     3.2380     0.8120 hc         1 A2Z       0.051700
     24 H16          0.2070    -2.9750     0.7650 h1         1 A2Z       0.060033
     25 H16A        -1.1090    -3.4500    -0.3340 h1         1 A2Z       0.060033
     26 H16B         0.3480    -2.7040    -1.0000 h1         1 A2Z       0.060033
     27 O3          -3.0640    -2.1940     0.2010 o          1 A2Z      -0.551000
@<TRIPOS>BOND
     1     1     4 ar  
     2     1     9 ar  
     3     1    16 1   
     4     2     6 1   
     5     2    10 1   
     6     2    15 1   
     7     3     8 1   
     8     3    13 1   
     9     4     6 ar  
    10     4    12 1   
    11     5     7 1   
    12     5    13 1   
    13     6     7 ar  
    14     7     8 ar  
    15     8     9 ar  
    16     9    17 1   
    17    10    11 1   
    18    10    27 2   
    19    11    12 2   
    20    11    18 1   
    21    12    14 1   
    22    13    19 1   
    23    13    20 1   
    24    14    21 1   
    25    14    22 1   
    26    14    23 1   
    27    15    24 1   
    28    15    25 1   
    29    15    26 1   
@<TRIPOS>SUBSTRUCTURE
     1 A2Z         1 TEMP              0 ****  ****    0 ROOT
