@<TRIPOS>MOLECULE
A30
   29    29     1     0     0
SMALL
bcc


@<TRIPOS>ATOM
      1 C1           7.0580   -15.4700    -3.6250 c3         1 A30       0.145400
      2 C2           5.9660   -15.9530    -4.5500 c3         1 A30      -0.092100
      3 N           10.5710   -12.9210     3.7940 n8         1 A30      -0.895800
      4 CA           9.7800   -13.1470     2.5860 c3         1 A30       0.016500
      5 C            8.2700   -12.8630     2.7640 c          1 A30       0.900600
      6 O            7.7250   -12.1100     1.9340 o          1 A30      -0.836800
      7 CB           9.9960   -14.6010     2.1430 c3         1 A30      -0.007100
      8 CG           9.1820   -14.9800     0.9400 ca         1 A30      -0.067300
      9 CD1          9.5310   -14.5490    -0.3340 ca         1 A30      -0.078000
     10 CD2          8.0230   -15.7460     1.0610 ca         1 A30      -0.078000
     11 CE1          8.7590   -14.8480    -1.4520 ca         1 A30      -0.192000
     12 CE2          7.2400   -16.0580    -0.0360 ca         1 A30      -0.192000
     13 CZ           7.5980   -15.6040    -1.3070 ca         1 A30       0.116100
     14 OH           6.7720   -15.9440    -2.3180 os         1 A30      -0.336900
     15 H1           8.0320   -15.8400    -3.9620 h1         1 A30       0.028200
     16 H6           7.1030   -14.3750    -3.6310 h1         1 A30       0.028200
     17 H3           6.1650   -15.5990    -5.5610 hc         1 A30       0.037700
     18 H4           5.9210   -17.0420    -4.5800 hc         1 A30       0.037700
     19 H5           4.9900   -15.5730    -4.2480 hc         1 A30       0.037700
     20 H           10.5390   -11.9360     4.0310 hn         1 A30       0.327300
     21 H2          10.0930   -13.3890     4.5580 hn         1 A30       0.327300
     22 HA          10.1730   -12.4910     1.8030 h1         1 A30       0.039700
     23 HB2          9.7420   -15.2610     2.9780 hc         1 A30       0.032700
     24 HB3         11.0620   -14.7450     1.9440 hc         1 A30       0.032700
     25 HD1         10.4280   -13.9560    -0.4690 ha         1 A30       0.131000
     26 HD2          7.7210   -16.1010     2.0390 ha         1 A30       0.131000
     27 HE1          9.0780   -14.4830    -2.4180 ha         1 A30       0.120500
     28 HE2          6.3440   -16.6530     0.0830 ha         1 A30       0.120500
     29 OXT          7.7250   -13.4280     3.7370 o          1 A30      -0.836800
@<TRIPOS>BOND
     1     1     2 1   
     2     1    14 1   
     3     1    15 1   
     4     1    16 1   
     5     2    17 1   
     6     2    18 1   
     7     2    19 1   
     8     3     4 1   
     9     3    20 1   
    10     3    21 1   
    11     4     5 1   
    12     4     7 1   
    13     4    22 1   
    14     5     6 1   
    15     5    29 1   
    16     7     8 1   
    17     7    23 1   
    18     7    24 1   
    19     8     9 ar  
    20     8    10 ar  
    21     9    11 ar  
    22     9    25 1   
    23    10    12 ar  
    24    10    26 1   
    25    11    13 ar  
    26    11    27 1   
    27    12    13 ar  
    28    12    28 1   
    29    13    14 1   
@<TRIPOS>SUBSTRUCTURE
     1 A30         1 TEMP              0 ****  ****    0 ROOT
