@<TRIPOS>MOLECULE
A30
   29    29     1     0     0
SMALL
No Charge or Current Charge


@<TRIPOS>ATOM
      1 C1           7.0970   -15.4950    -3.7580 c3         1 A30       0.145400
      2 C2           6.0090   -16.0420    -4.6970 c3         1 A30      -0.092100
      3 N           10.8180   -12.8070     3.6630 n8         1 A30      -0.895800
      4 CA           9.7450   -13.1630     2.6560 c3         1 A30       0.016500
      5 C            8.2400   -12.8740     3.0810 c          1 A30       0.900600
      6 O            7.6200   -11.9990     2.4850 o          1 A30      -0.836800
      7 CB           9.9160   -14.6350     2.1950 c3         1 A30      -0.007100
      8 CG           9.0870   -14.9660     0.9580 ca         1 A30      -0.067300
      9 CD1          9.4930   -14.5090    -0.3100 ca         1 A30      -0.078000
     10 CD2          7.9110   -15.7340     1.0720 ca         1 A30      -0.078000
     11 CE1          8.7340   -14.8130    -1.4550 ca         1 A30      -0.192000
     12 CE2          7.1520   -16.0380    -0.0720 ca         1 A30      -0.192000
     13 CZ           7.5560   -15.5820    -1.3370 ca         1 A30       0.116100
     14 OH           6.7710   -15.9120    -2.4220 os         1 A30      -0.336900
     15 H1           8.0750   -15.8920    -4.0630 h1         1 A30       0.028200
     16 H6           7.1230   -14.4000    -3.8290 h1         1 A30       0.028200
     17 H3           6.2180   -15.7470    -5.7320 hc         1 A30       0.037700
     18 H4           5.9750   -17.1370    -4.6520 hc         1 A30       0.037700
     19 H5           5.0250   -15.6470    -4.4190 hc         1 A30       0.037700
     20 H           10.7390   -11.8130     3.9020 hn         1 A30       0.327300
     21 H2          10.6140   -13.2910     4.5440 hn         1 A30       0.327300
     22 HA           9.9390   -12.5320     1.7780 h1         1 A30       0.039700
     23 HB2          9.6600   -15.3080     3.0220 hc         1 A30       0.032700
     24 HB3         10.9740   -14.8210     1.9720 hc         1 A30       0.032700
     25 HD1         10.4010   -13.9170    -0.4090 ha         1 A30       0.131000
     26 HD2          7.5840   -16.0930     2.0450 ha         1 A30       0.131000
     27 HE1          9.0740   -14.4450    -2.4180 ha         1 A30       0.120500
     28 HE2          6.2450   -16.6300     0.0220 ha         1 A30       0.120500
     29 OXT          7.7930   -13.4240     4.0830 o          1 A30      -0.836800
@<TRIPOS>BOND
     1     1     2 1   
     2     1    14 1   
     3     1    15 1   
     4     1    16 1   
     5     2    17 1   
     6     2    18 1   
     7     2    19 1   
     8     3     4 1   
     9     3    20 1   
    10     3    21 1   
    11     4     5 1   
    12     4     7 1   
    13     4    22 1   
    14     5     6 1   
    15     5    29 1   
    16     7     8 1   
    17     7    23 1   
    18     7    24 1   
    19     8     9 ar  
    20     8    10 ar  
    21     9    11 ar  
    22     9    25 1   
    23    10    12 ar  
    24    10    26 1   
    25    11    13 ar  
    26    11    27 1   
    27    12    13 ar  
    28    12    28 1   
    29    13    14 1   
@<TRIPOS>SUBSTRUCTURE
     1 A30         1 TEMP              0 ****  ****    0 ROOT
