@<TRIPOS>MOLECULE
A31
  135   139     1     0     0
SMALL
abcg2


@<TRIPOS>ATOM
      1 C1         -17.9230     2.0470    -0.9920 c6         1 A31      -0.123000
      2 C2         -19.0450     2.0600    -2.0380 c6         1 A31      -0.058733
      3 C3         -20.2850     2.7600    -1.4800 c6         1 A31      -0.060033
      4 C4         -19.9320     4.2030    -1.1130 c6         1 A31      -0.068733
      5 C5         -18.8270     4.2010    -0.0560 c6         1 A31      -0.060033
      6 C6         -17.5850     3.5020    -0.6120 c6         1 A31      -0.058733
      7 C7         -18.4310     1.3140     0.2660 c6         1 A31      -0.058733
      8 C8         -20.7770     2.0210    -0.2350 c6         1 A31      -0.068733
      9 C9         -19.3130     3.4590     1.1910 c6         1 A31      -0.068733
     10 C10        -19.6710     2.0180     0.8210 c6         1 A31      -0.060033
     11 C11        -16.6860     1.3590    -1.5670 c          1 A31       0.603100
     12 N12        -15.6370     1.2410    -0.7360 ns         1 A31      -0.510900
     13 O13        -16.6320     0.9480    -2.7200 o          1 A31      -0.607100
     14 C14        -14.3720     0.6680    -1.1470 c3         1 A31       0.105000
     15 C15        -13.3410     0.7740    -0.0360 c3         1 A31      -0.094400
     16 C16        -11.9820     0.2430    -0.4730 c3         1 A31      -0.073400
     17 C17        -10.9270     0.3230     0.6220 c3         1 A31      -0.074400
     18 C18         -9.5590    -0.1650     0.1630 c3         1 A31      -0.074400
     19 C19         -8.4950    -0.0940     1.2520 c3         1 A31      -0.071400
     20 C20         -7.1230    -0.5450     0.7670 c3         1 A31      -0.102400
     21 C21         -6.0660    -0.4670     1.8630 c3         1 A31       0.103000
     22 N22         -4.7410    -0.8230     1.4030 ns         1 A31      -0.507900
     23 C23         -4.2840    -2.0840     1.3400 c          1 A31       0.598100
     24 O24         -4.9140    -3.0420     1.7700 o          1 A31      -0.597100
     25 C25         -2.9300    -2.2450     0.6820 c3         1 A31      -0.160400
     26 C26         -2.0430    -3.2560     1.3970 c3         1 A31      -0.057400
     27 C27         -0.7100    -3.4240     0.6760 c3         1 A31      -0.161400
     28 C28          0.1620    -4.4830     1.3170 c          1 A31       0.599100
     29 O29         -0.2720    -5.5950     1.5920 o          1 A31      -0.597100
     30 N30          1.4310    -4.1140     1.5560 ns         1 A31      -0.505900
     31 C31          2.4430    -5.0080     2.0680 c3         1 A31       0.102000
     32 C32          3.1930    -5.7460     0.9640 c3         1 A31      -0.106400
     33 C33          4.2710    -6.6460     1.5360 c3         1 A31       0.166600
     34 O34          4.9820    -7.2400     0.4780 os         1 A31      -0.447000
     35 C35          6.0830    -7.9980     0.9100 c3         1 A31       0.164600
     36 C36          6.8940    -8.4370    -0.2830 c3         1 A31       0.161600
     37 O37          7.4100    -7.3040    -0.9330 os         1 A31      -0.437000
     38 C38          8.2220    -7.6170    -2.0350 c3         1 A31       0.161600
     39 C39          8.5850    -6.3490    -2.7640 c3         1 A31       0.163600
     40 O40          9.3600    -5.5230    -1.9330 os         1 A31      -0.446000
     41 C41          9.6220    -4.2670    -2.5090 c3         1 A31       0.165600
     42 C42         10.3760    -3.4040    -1.5160 c3         1 A31      -0.103400
     43 C43         10.6090    -2.0060    -2.0800 c3         1 A31       0.100000
     44 N44         11.2650    -1.1250    -1.1430 ns         1 A31      -0.505900
     45 C45         12.5720    -0.8170    -1.1770 c          1 A31       0.601100
     46 O46         13.3410    -1.2540    -2.0240 o          1 A31      -0.606100
     47 C47         13.0350     0.1580    -0.1180 c3         1 A31      -0.159400
     48 C48         13.3640     1.5200    -0.7300 c3         1 A31      -0.069400
     49 C49         13.8980     2.5040     0.3020 c3         1 A31      -0.077400
     50 C50         14.1180     3.8910    -0.2890 c3         1 A31      -0.059400
     51 C51         14.7990     4.8590     0.6620 c5         1 A31       0.072300
     52 S52         13.8220     5.1820     2.1650 ss         1 A31      -0.407000
     53 C53         14.9370     6.5520     2.5620 c5         1 A31       0.030600
     54 C54         15.2330     7.2660     1.2380 c5         1 A31       0.105700
     55 N56         13.9360     6.7800    -0.6520 ns         1 A31      -0.510900
     56 C57         13.5130     7.9870    -0.1820 c          1 A31       0.614000
     57 N58         14.2680     8.2790     0.9040 ns         1 A31      -0.526900
     58 C59         15.0650     6.2490     0.0690 c5         1 A31       0.095700
     59 O59         12.6230     8.6760    -0.6570 o          1 A31      -0.578000
     60 H2         -18.7090     2.5740    -2.9420 hc         1 A31       0.046700
     61 H2A        -19.2970     1.0370    -2.3330 hc         1 A31       0.046700
     62 H3         -21.0680     2.7560    -2.2440 hc         1 A31       0.050700
     63 H4         -19.6000     4.7470    -2.0040 hc         1 A31       0.041033
     64 H4A        -20.8160     4.7260    -0.7360 hc         1 A31       0.041033
     65 H5         -18.5650     5.2300     0.2080 hc         1 A31       0.050700
     66 H6         -16.7860     3.5340     0.1360 hc         1 A31       0.046700
     67 H6A        -17.2130     4.0390    -1.4910 hc         1 A31       0.046700
     68 H7         -18.6630     0.2730     0.0200 hc         1 A31       0.046700
     69 H7A        -17.6580     1.2850     1.0410 hc         1 A31       0.046700
     70 H8         -21.6760     2.5040     0.1600 hc         1 A31       0.041033
     71 H8A        -21.0570     0.9940    -0.4920 hc         1 A31       0.041033
     72 H9         -18.5370     3.4700     1.9640 hc         1 A31       0.041033
     73 H9A        -20.1850     3.9670     1.6140 hc         1 A31       0.041033
     74 H10        -20.0110     1.4820     1.7120 hc         1 A31       0.050700
     75 HN12       -15.7140     1.5830     0.2080 hn         1 A31       0.312500
     76 H14        -14.5080    -0.3810    -1.4280 h1         1 A31       0.050700
     77 H14A       -14.0070     1.1880    -2.0380 h1         1 A31       0.050700
     78 H15        -13.2410     1.8210     0.2680 hc         1 A31       0.041700
     79 H15A       -13.6880     0.2230     0.8440 hc         1 A31       0.041700
     80 H16        -12.0850    -0.7960    -0.8020 hc         1 A31       0.042700
     81 H16A       -11.6400     0.8070    -1.3480 hc         1 A31       0.042700
     82 H17        -10.8440     1.3570     0.9720 hc         1 A31       0.038200
     83 H17A       -11.2540    -0.2650     1.4870 hc         1 A31       0.038200
     84 H18         -9.6420    -1.1970    -0.1950 hc         1 A31       0.039700
     85 H18A        -9.2350     0.4290    -0.6990 hc         1 A31       0.039700
     86 H19         -8.4280     0.9330     1.6270 hc         1 A31       0.038700
     87 H19A        -8.8050    -0.7080     2.1040 hc         1 A31       0.038700
     88 H20         -7.1800    -1.5710     0.3940 hc         1 A31       0.047200
     89 H20A        -6.8110     0.0770    -0.0780 hc         1 A31       0.047200
     90 H21         -6.0140     0.5480     2.2590 h1         1 A31       0.054700
     91 H21A        -6.3380    -1.1170     2.6950 h1         1 A31       0.054700
     92 HN22        -4.1850    -0.0920     0.9900 hn         1 A31       0.307500
     93 H25         -3.1080    -2.5790    -0.3450 hc         1 A31       0.052700
     94 H25A        -2.4170    -1.2830     0.6040 hc         1 A31       0.052700
     95 H26         -1.8630    -2.9280     2.4240 hc         1 A31       0.070200
     96 H26A        -2.5530    -4.2170     1.4570 hc         1 A31       0.070200
     97 H27         -0.8910    -3.7370    -0.3580 hc         1 A31       0.053200
     98 H27A        -0.1880    -2.4660     0.6200 hc         1 A31       0.053200
     99 HN30         1.7270    -3.1980     1.2620 hn         1 A31       0.309500
    100 H31          3.1420    -4.4170     2.6620 h1         1 A31       0.055200
    101 H31A         1.9710    -5.7180     2.7480 h1         1 A31       0.055200
    102 H32          2.4860    -6.3360     0.3750 hc         1 A31       0.060200
    103 H32A         3.6520    -5.0180     0.2900 hc         1 A31       0.060200
    104 H33          4.9510    -6.0580     2.1700 h1         1 A31       0.019700
    105 H33A         3.8200    -7.4110     2.1850 h1         1 A31       0.019700
    106 H35          6.7170    -7.4140     1.5910 h1         1 A31       0.029700
    107 H35A         5.7620    -8.8930     1.4620 h1         1 A31       0.029700
    108 H36          7.6980    -9.0950     0.0750 h1         1 A31       0.028200
    109 H36A         6.2760    -9.0350    -0.9680 h1         1 A31       0.028200
    110 H38          9.1290    -8.1520    -1.7190 h1         1 A31       0.028200
    111 H38A         7.6970    -8.2740    -2.7430 h1         1 A31       0.028200
    112 H39          9.1320    -6.6200    -3.6790 h1         1 A31       0.029200
    113 H39A         7.6690    -5.8330    -3.0830 h1         1 A31       0.029200
    114 H41         10.2060    -4.3760    -3.4350 h1         1 A31       0.019700
    115 H41A         8.6810    -3.7720    -2.7910 h1         1 A31       0.019700
    116 H42          9.8000    -3.3310    -0.5890 hc         1 A31       0.059700
    117 H42A        11.3360    -3.8650    -1.2680 hc         1 A31       0.059700
    118 H43         11.2120    -2.0570    -2.9860 h1         1 A31       0.054700
    119 H43A         9.6540    -1.5560    -2.3590 h1         1 A31       0.054700
    120 HN44        10.7020    -0.7360    -0.4050 hn         1 A31       0.311500
    121 H47         12.2860     0.2820     0.6680 hc         1 A31       0.059700
    122 H47A        13.9280    -0.2570     0.3550 hc         1 A31       0.059700
    123 H48         14.0990     1.3940    -1.5290 hc         1 A31       0.050700
    124 H48A        12.4630     1.9310    -1.1970 hc         1 A31       0.050700
    125 H49         13.1970     2.5660     1.1410 hc         1 A31       0.047200
    126 H49A        14.8380     2.1250     0.7160 hc         1 A31       0.047200
    127 H50         14.7430     3.8080    -1.1840 hc         1 A31       0.053700
    128 H50A        13.1610     4.3070    -0.6130 hc         1 A31       0.053700
    129 H51         15.7610     4.4370     0.9740 h1         1 A31       0.070700
    130 H53         14.4760     7.2160     3.2930 h1         1 A31       0.077700
    131 H53A        15.8600     6.1620     2.9940 h1         1 A31       0.077700
    132 H54         16.2420     7.6820     1.2710 h1         1 A31       0.069700
    133 HN56        13.7430     6.5150    -1.6030 hn         1 A31       0.336500
    134 HN58        14.0680     9.0640     1.5000 hn         1 A31       0.344500
    135 H59         15.9550     6.2090    -0.5650 h1         1 A31       0.062700
@<TRIPOS>BOND
     1     1     2 1   
     2     1     6 1   
     3     1     7 1   
     4     1    11 1   
     5     2     3 1   
     6     2    60 1   
     7     2    61 1   
     8     3     4 1   
     9     3     8 1   
    10     3    62 1   
    11     4     5 1   
    12     4    63 1   
    13     4    64 1   
    14     5     6 1   
    15     5     9 1   
    16     5    65 1   
    17     6    66 1   
    18     6    67 1   
    19     7    10 1   
    20     7    68 1   
    21     7    69 1   
    22     8    10 1   
    23     8    70 1   
    24     8    71 1   
    25     9    10 1   
    26     9    72 1   
    27     9    73 1   
    28    10    74 1   
    29    11    12 1   
    30    11    13 2   
    31    12    14 1   
    32    12    75 1   
    33    14    15 1   
    34    14    76 1   
    35    14    77 1   
    36    15    16 1   
    37    15    78 1   
    38    15    79 1   
    39    16    17 1   
    40    16    80 1   
    41    16    81 1   
    42    17    18 1   
    43    17    82 1   
    44    17    83 1   
    45    18    19 1   
    46    18    84 1   
    47    18    85 1   
    48    19    20 1   
    49    19    86 1   
    50    19    87 1   
    51    20    21 1   
    52    20    88 1   
    53    20    89 1   
    54    21    22 1   
    55    21    90 1   
    56    21    91 1   
    57    22    23 1   
    58    22    92 1   
    59    23    24 2   
    60    23    25 1   
    61    25    26 1   
    62    25    93 1   
    63    25    94 1   
    64    26    27 1   
    65    26    95 1   
    66    26    96 1   
    67    27    28 1   
    68    27    97 1   
    69    27    98 1   
    70    28    29 2   
    71    28    30 1   
    72    30    31 1   
    73    30    99 1   
    74    31    32 1   
    75    31   100 1   
    76    31   101 1   
    77    32    33 1   
    78    32   102 1   
    79    32   103 1   
    80    33    34 1   
    81    33   104 1   
    82    33   105 1   
    83    34    35 1   
    84    35    36 1   
    85    35   106 1   
    86    35   107 1   
    87    36    37 1   
    88    36   108 1   
    89    36   109 1   
    90    37    38 1   
    91    38    39 1   
    92    38   110 1   
    93    38   111 1   
    94    39    40 1   
    95    39   112 1   
    96    39   113 1   
    97    40    41 1   
    98    41    42 1   
    99    41   114 1   
   100    41   115 1   
   101    42    43 1   
   102    42   116 1   
   103    42   117 1   
   104    43    44 1   
   105    43   118 1   
   106    43   119 1   
   107    44    45 1   
   108    44   120 1   
   109    45    46 2   
   110    45    47 1   
   111    47    48 1   
   112    47   121 1   
   113    47   122 1   
   114    48    49 1   
   115    48   123 1   
   116    48   124 1   
   117    49    50 1   
   118    49   125 1   
   119    49   126 1   
   120    50    51 1   
   121    50   127 1   
   122    50   128 1   
   123    51    52 1   
   124    51    58 1   
   125    51   129 1   
   126    52    53 1   
   127    53    54 1   
   128    53   130 1   
   129    53   131 1   
   130    54    57 1   
   131    54    58 1   
   132    54   132 1   
   133    55    56 1   
   134    55    58 1   
   135    55   133 1   
   136    56    57 1   
   137    56    59 2   
   138    57   134 1   
   139    58   135 1   
@<TRIPOS>SUBSTRUCTURE
     1 A31         1 TEMP              0 ****  ****    0 ROOT
