@<TRIPOS>MOLECULE
A31
  135   139     1     0     0
SMALL
No Charge or Current Charge


@<TRIPOS>ATOM
      1 C1         -19.1070     1.9070    -0.2020 c6         1 A31      -0.123000
      2 C2         -20.0780     2.6330    -1.1920 c6         1 A31      -0.058733
      3 C3         -21.4140     2.9990    -0.4830 c6         1 A31      -0.060033
      4 C4         -21.1200     3.9030     0.7500 c6         1 A31      -0.068733
      5 C5         -20.2090     3.1440     1.7600 c6         1 A31      -0.060033
      6 C6         -18.8610     2.7800     1.0730 c6         1 A31      -0.058733
      7 C7         -19.8490     0.6000     0.2810 c6         1 A31      -0.058733
      8 C8         -22.1190     1.6960    -0.0130 c6         1 A31      -0.068733
      9 C9         -20.9200     1.8400     2.2190 c6         1 A31      -0.068733
     10 C10        -21.1960     0.9410     0.9830 c6         1 A31      -0.060033
     11 C11        -17.7510     1.5910    -0.9090 c          1 A31       0.603100
     12 N12        -17.3810     0.2660    -1.0210 ns         1 A31      -0.510900
     13 O13        -17.0410     2.4840    -1.3520 o          1 A31      -0.607100
     14 C14        -16.1270    -0.2080    -1.6110 c3         1 A31       0.105000
     15 C15        -14.9410    -0.0720    -0.6350 c3         1 A31      -0.094400
     16 C16        -13.6120    -0.5860    -1.2300 c3         1 A31      -0.073400
     17 C17        -12.4220    -0.4520    -0.2540 c3         1 A31      -0.074400
     18 C18        -11.0920    -0.9640    -0.8490 c3         1 A31      -0.074400
     19 C19         -9.9020    -0.8300     0.1260 c3         1 A31      -0.071400
     20 C20         -8.5720    -1.3400    -0.4700 c3         1 A31      -0.102400
     21 C21         -7.3870    -1.2040     0.5070 c3         1 A31       0.103000
     22 N22         -6.1300    -1.6730    -0.0830 ns         1 A31      -0.507900
     23 C23         -5.7570    -2.9940    -0.1950 c          1 A31       0.598100
     24 O24         -6.4580    -3.9110     0.2090 o          1 A31      -0.597100
     25 C25         -4.4120    -3.2300    -0.8900 c3         1 A31      -0.160400
     26 C26         -3.3190    -3.6620     0.1160 c3         1 A31      -0.057400
     27 C27         -1.9460    -3.9080    -0.5540 c3         1 A31      -0.161400
     28 C28         -0.8880    -4.3340     0.4700 c          1 A31       0.599100
     29 O29         -0.8690    -5.4490     0.9700 o          1 A31      -0.597100
     30 N30          0.0570    -3.3760     0.7640 ns         1 A31      -0.505900
     31 C31          1.1830    -3.5650     1.6820 c3         1 A31       0.102000
     32 C32          2.3360    -4.3540     1.0330 c3         1 A31      -0.106400
     33 C33          3.5300    -4.5440     1.9850 c3         1 A31       0.166600
     34 O34          4.5380    -5.2800     1.2770 os         1 A31      -0.447000
     35 C35          5.7320    -5.5430     2.0410 c3         1 A31       0.164600
     36 C36          6.7340    -6.3270     1.1600 c3         1 A31       0.161600
     37 O37          7.2770    -5.4420     0.1600 os         1 A31      -0.437000
     38 C38          8.2210    -6.0600    -0.7370 c3         1 A31       0.161600
     39 C39          8.7320    -5.0010    -1.7430 c3         1 A31       0.163600
     40 O40          9.6110    -4.0860    -1.0580 os         1 A31      -0.446000
     41 C41         10.1450    -3.0440    -1.8880 c3         1 A31       0.165600
     42 C42         11.0520    -2.1670    -1.0080 c3         1 A31      -0.103400
     43 C43         11.6830    -0.9980    -1.7900 c3         1 A31       0.100000
     44 N44         12.5330    -0.1590    -0.9410 ns         1 A31      -0.505900
     45 C45         13.8180    -0.4720    -0.5580 c          1 A31       0.601100
     46 O46         14.3750    -1.5020    -0.9110 o          1 A31      -0.606100
     47 C47         14.4860     0.5500     0.3680 c3         1 A31      -0.159400
     48 C48         15.5680     1.3700    -0.3750 c3         1 A31      -0.069400
     49 C49         16.2590     2.4140     0.5300 c3         1 A31      -0.077400
     50 C50         17.3410     3.2350    -0.2110 c3         1 A31      -0.059400
     51 C51         18.0820     4.2670     0.6820 c5         1 A31       0.072300
     52 S52         16.9580     5.6330     1.2240 ss         1 A31      -0.407000
     53 C53         18.4470     6.5050     1.8940 c5         1 A31       0.030600
     54 C54         19.5910     6.3210     0.8400 c5         1 A31       0.105700
     55 N56         18.9030     5.4930    -1.2790 ns         1 A31      -0.510900
     56 C57         18.9130     6.8430    -1.3500 c          1 A31       0.614000
     57 N58         19.3380     7.3510    -0.1710 ns         1 A31      -0.526900
     58 C59         19.3230     4.9840     0.0320 c5         1 A31       0.095700
     59 O59         18.6070     7.4980    -2.3270 o          1 A31      -0.578000
     60 H2         -19.6070     3.5490    -1.5760 hc         1 A31       0.046700
     61 H2A        -20.2750     2.0010    -2.0690 hc         1 A31       0.046700
     62 H3         -22.0670     3.5360    -1.1850 hc         1 A31       0.050700
     63 H4         -20.6350     4.8360     0.4300 hc         1 A31       0.041033
     64 H4A        -22.0610     4.1960     1.2370 hc         1 A31       0.041033
     65 H5         -20.0150     3.7820     2.6330 hc         1 A31       0.050700
     66 H6         -18.2070     2.2490     1.7790 hc         1 A31       0.046700
     67 H6A        -18.3310     3.7030     0.8000 hc         1 A31       0.046700
     68 H7         -20.0480    -0.0660    -0.5710 hc         1 A31       0.046700
     69 H7A        -19.2150     0.0340     0.9790 hc         1 A31       0.046700
     70 H8         -23.0800     1.9340     0.4650 hc         1 A31       0.041033
     71 H8A        -22.3510     1.0570    -0.8760 hc         1 A31       0.041033
     72 H9         -20.2970     1.3040     2.9480 hc         1 A31       0.041033
     73 H9A        -21.8610     2.0810     2.7320 hc         1 A31       0.041033
     74 H10        -21.6870     0.0130     1.3070 hc         1 A31       0.050700
     75 HN12       -18.0190    -0.4190    -0.6370 hn         1 A31       0.312500
     76 H14        -16.2510    -1.2620    -1.8900 h1         1 A31       0.050700
     77 H14A       -15.9220     0.3620    -2.5270 h1         1 A31       0.050700
     78 H15        -14.8240     0.9810    -0.3500 hc         1 A31       0.041700
     79 H15A       -15.1660    -0.6300     0.2830 hc         1 A31       0.041700
     80 H16        -13.7280    -1.6390    -1.5140 hc         1 A31       0.042700
     81 H16A       -13.3900    -0.0280    -2.1480 hc         1 A31       0.042700
     82 H17        -12.3070     0.6010     0.0310 hc         1 A31       0.038200
     83 H17A       -12.6440    -1.0100     0.6640 hc         1 A31       0.038200
     84 H18        -11.2070    -2.0170    -1.1350 hc         1 A31       0.039700
     85 H18A       -10.8700    -0.4050    -1.7670 hc         1 A31       0.039700
     86 H19         -9.7880     0.2230     0.4130 hc         1 A31       0.038700
     87 H19A       -10.1240    -1.3900     1.0440 hc         1 A31       0.038700
     88 H20         -8.6870    -2.3930    -0.7570 hc         1 A31       0.047200
     89 H20A        -8.3470    -0.7800    -1.3860 hc         1 A31       0.047200
     90 H21         -7.2660    -0.1500     0.7910 h1         1 A31       0.054700
     91 H21A        -7.5910    -1.7790     1.4210 h1         1 A31       0.054700
     92 HN22        -5.4840    -0.9850    -0.4520 hn         1 A31       0.307500
     93 H25         -4.5370    -4.0300    -1.6310 hc         1 A31       0.052700
     94 H25A        -4.0820    -2.3120    -1.3910 hc         1 A31       0.052700
     95 H26         -3.2120    -2.8870     0.8880 hc         1 A31       0.070200
     96 H26A        -3.6410    -4.5770     0.6300 hc         1 A31       0.070200
     97 H27         -2.0600    -4.7090    -1.2930 hc         1 A31       0.053200
     98 H27A        -1.6330    -2.9840    -1.0550 hc         1 A31       0.053200
     99 HN30        -0.0400    -2.4820     0.2950 hn         1 A31       0.309500
    100 H31          1.5470    -2.5770     1.9950 h1         1 A31       0.055200
    101 H31A         0.8300    -4.0930     2.5790 h1         1 A31       0.055200
    102 H32          1.9720    -5.3390     0.7160 hc         1 A31       0.060200
    103 H32A         2.6740    -3.8260     0.1340 hc         1 A31       0.060200
    104 H33          3.9120    -3.5630     2.2970 h1         1 A31       0.019700
    105 H33A         3.2050    -5.0930     2.8790 h1         1 A31       0.019700
    106 H35          6.1970    -4.6090     2.3820 h1         1 A31       0.029700
    107 H35A         5.4910    -6.1470     2.9260 h1         1 A31       0.029700
    108 H36          7.5380    -6.7160     1.7990 h1         1 A31       0.028200
    109 H36A         6.2250    -7.1820     0.6960 h1         1 A31       0.028200
    110 H38          9.0710    -6.4830    -0.1850 h1         1 A31       0.028200
    111 H38A         7.7370    -6.8730    -1.2940 h1         1 A31       0.028200
    112 H39          9.2710    -5.5130    -2.5510 h1         1 A31       0.029200
    113 H39A         7.8770    -4.4730    -2.1850 h1         1 A31       0.029200
    114 H41         10.7320    -3.4680    -2.7140 h1         1 A31       0.019700
    115 H41A         9.3380    -2.4320    -2.3110 h1         1 A31       0.019700
    116 H42         10.4650    -1.7660    -0.1730 hc         1 A31       0.059700
    117 H42A        11.8460    -2.7900    -0.5790 hc         1 A31       0.059700
    118 H43         12.2840    -1.3910    -2.6220 h1         1 A31       0.054700
    119 H43A        10.8880    -0.3710    -2.2150 h1         1 A31       0.054700
    120 HN44        12.1560     0.7160    -0.5960 hn         1 A31       0.311500
    121 H47         13.7350     1.2440     0.7630 hc         1 A31       0.059700
    122 H47A        14.9650     0.0120     1.1940 hc         1 A31       0.059700
    123 H48         16.3250     0.6860    -0.7810 hc         1 A31       0.050700
    124 H48A        15.1080     1.8810    -1.2300 hc         1 A31       0.050700
    125 H49         15.4990     3.0930     0.9350 hc         1 A31       0.047200
    126 H49A        16.7190     1.9020     1.3850 hc         1 A31       0.047200
    127 H50         18.0760     2.5380    -0.6330 hc         1 A31       0.053700
    128 H50A        16.8710     3.7430    -1.0620 hc         1 A31       0.053700
    129 H51         18.4200     3.7390     1.5840 h1         1 A31       0.070700
    130 H53         18.2260     7.5610     2.1020 h1         1 A31       0.077700
    131 H53A        18.7280     6.0320     2.8450 h1         1 A31       0.077700
    132 H54         20.5980     6.3810     1.2760 h1         1 A31       0.069700
    133 HN56        18.6150     4.9520    -2.0840 hn         1 A31       0.336500
    134 HN58        19.4030     8.3550    -0.0540 hn         1 A31       0.344500
    135 H59         20.2070     4.3350    -0.0310 h1         1 A31       0.062700
@<TRIPOS>BOND
     1     1     2 1   
     2     1     6 1   
     3     1     7 1   
     4     1    11 1   
     5     2     3 1   
     6     2    60 1   
     7     2    61 1   
     8     3     4 1   
     9     3     8 1   
    10     3    62 1   
    11     4     5 1   
    12     4    63 1   
    13     4    64 1   
    14     5     6 1   
    15     5     9 1   
    16     5    65 1   
    17     6    66 1   
    18     6    67 1   
    19     7    10 1   
    20     7    68 1   
    21     7    69 1   
    22     8    10 1   
    23     8    70 1   
    24     8    71 1   
    25     9    10 1   
    26     9    72 1   
    27     9    73 1   
    28    10    74 1   
    29    11    12 1   
    30    11    13 2   
    31    12    14 1   
    32    12    75 1   
    33    14    15 1   
    34    14    76 1   
    35    14    77 1   
    36    15    16 1   
    37    15    78 1   
    38    15    79 1   
    39    16    17 1   
    40    16    80 1   
    41    16    81 1   
    42    17    18 1   
    43    17    82 1   
    44    17    83 1   
    45    18    19 1   
    46    18    84 1   
    47    18    85 1   
    48    19    20 1   
    49    19    86 1   
    50    19    87 1   
    51    20    21 1   
    52    20    88 1   
    53    20    89 1   
    54    21    22 1   
    55    21    90 1   
    56    21    91 1   
    57    22    23 1   
    58    22    92 1   
    59    23    24 2   
    60    23    25 1   
    61    25    26 1   
    62    25    93 1   
    63    25    94 1   
    64    26    27 1   
    65    26    95 1   
    66    26    96 1   
    67    27    28 1   
    68    27    97 1   
    69    27    98 1   
    70    28    29 2   
    71    28    30 1   
    72    30    31 1   
    73    30    99 1   
    74    31    32 1   
    75    31   100 1   
    76    31   101 1   
    77    32    33 1   
    78    32   102 1   
    79    32   103 1   
    80    33    34 1   
    81    33   104 1   
    82    33   105 1   
    83    34    35 1   
    84    35    36 1   
    85    35   106 1   
    86    35   107 1   
    87    36    37 1   
    88    36   108 1   
    89    36   109 1   
    90    37    38 1   
    91    38    39 1   
    92    38   110 1   
    93    38   111 1   
    94    39    40 1   
    95    39   112 1   
    96    39   113 1   
    97    40    41 1   
    98    41    42 1   
    99    41   114 1   
   100    41   115 1   
   101    42    43 1   
   102    42   116 1   
   103    42   117 1   
   104    43    44 1   
   105    43   118 1   
   106    43   119 1   
   107    44    45 1   
   108    44   120 1   
   109    45    46 2   
   110    45    47 1   
   111    47    48 1   
   112    47   121 1   
   113    47   122 1   
   114    48    49 1   
   115    48   123 1   
   116    48   124 1   
   117    49    50 1   
   118    49   125 1   
   119    49   126 1   
   120    50    51 1   
   121    50   127 1   
   122    50   128 1   
   123    51    52 1   
   124    51    58 1   
   125    51   129 1   
   126    52    53 1   
   127    53    54 1   
   128    53   130 1   
   129    53   131 1   
   130    54    57 1   
   131    54    58 1   
   132    54   132 1   
   133    55    56 1   
   134    55    58 1   
   135    55   133 1   
   136    56    57 1   
   137    56    59 2   
   138    57   134 1   
   139    58   135 1   
@<TRIPOS>SUBSTRUCTURE
     1 A31         1 TEMP              0 ****  ****    0 ROOT
