@<TRIPOS>MOLECULE
A32
   62    64     1     0     0
SMALL
No Charge or Current Charge


@<TRIPOS>ATOM
      1 C1          -4.2100     0.8450     0.9210 c6         1 A32       0.363300
      2 O1          -3.7600    -0.5250     0.8070 os         1 A32      -0.364100
      3 C2          -5.7520     0.9170     1.2190 c6         1 A32       0.115300
      4 O2          -6.1510     0.1510     2.3890 oh         1 A32      -0.707000
      5 C3          -6.5600     0.4250    -0.0230 c6         1 A32       0.138300
      6 O3          -7.9710     0.5860     0.2200 oh         1 A32      -0.670000
      7 C4          -6.1400     1.1910    -1.3120 c6         1 A32       0.146300
      8 O4          -6.5930     2.5580    -1.2170 oh         1 A32      -0.715000
      9 C5          -4.5890     1.0780    -1.4800 c6         1 A32       0.169300
     10 O5          -3.9020     1.5670    -0.2950 os         1 A32      -0.439000
     11 C6          -4.0610     1.8610    -2.7260 c3         1 A32       0.171600
     12 O6          -2.6390     1.7200    -2.9280 oh         1 A32      -0.713000
     13 C10         -2.4210    -0.8490     0.6890 ca         1 A32       0.136100
     14 C11         -2.1040    -2.2010     0.5010 ca         1 A32      -0.073000
     15 C12         -0.7600    -2.6210     0.3760 ca         1 A32      -0.153200
     16 C13          0.2720    -1.6540     0.4460 ca         1 A32      -0.068000
     17 C14         -0.0280    -0.2820     0.6380 ca         1 A32      -0.126600
     18 C15         -1.3830     0.1070     0.7590 ca         1 A32      -0.094000
     19 N1          -0.4360    -4.0730     0.1740 no         1 A32       0.695200
     20 O7           0.7540    -4.3990     0.0700 o          1 A32      -0.396000
     21 O8          -1.3730    -4.8800     0.1200 o          1 A32      -0.396000
     22 C7           1.0550     0.7800     0.7210 c          1 A32       0.609700
     23 O9           0.7960     1.9580     0.9280 o          1 A32      -0.587100
     24 N2           2.3580     0.3610     0.5570 ns         1 A32      -0.499900
     25 O1B         10.0440     0.1830    -0.6980 os         1 A32      -0.449000
     26 C2B          9.8910     0.8490     0.5780 c6         1 A32       0.153100
     27 C3B          8.5290     1.6030     0.6330 c6         1 A32       0.126300
     28 N4           7.3730     0.6940     0.3500 n3         1 A32      -0.717600
     29 C5B          7.5960    -0.0470    -0.9360 c6         1 A32       0.126300
     30 C6B          8.9810    -0.7630    -0.9610 c6         1 A32       0.153100
     31 C7B          6.0720     1.4030     0.4240 c3         1 A32       0.171800
     32 C8           4.8340     0.4820     0.3690 c3         1 A32      -0.097400
     33 C9           3.5210     1.2480     0.6110 c3         1 A32       0.099000
     34 H11         -3.6830     1.3210     1.7620 h2         1 A32       0.080700
     35 H21         -5.9920     1.9790     1.3800 h1         1 A32       0.070700
     36 HO21        -5.6350     0.4870     3.1600 ho         1 A32       0.513000
     37 H31         -6.3290    -0.6410    -0.1750 h1         1 A32       0.069700
     38 HO31        -8.1030     0.2700     1.1450 ho         1 A32       0.470000
     39 H41         -6.6160     0.7000    -2.1740 h1         1 A32       0.057700
     40 HO41        -7.4840     2.4900    -0.7940 ho         1 A32       0.524000
     41 H51         -4.3290     0.0200    -1.6290 h1         1 A32       0.066700
     42 H61         -4.3190     2.9220    -2.6020 h1         1 A32       0.039700
     43 H62         -4.6030     1.4970    -3.6100 h1         1 A32       0.039700
     44 HO1         -2.3940     2.3160    -3.6740 ho         1 A32       0.509000
     45 H2'1        -2.9190    -2.9210     0.4530 ha         1 A32       0.165000
     46 H4'1         1.3040    -1.9810     0.3520 ha         1 A32       0.153000
     47 H6'1        -1.6140     1.1580     0.9040 ha         1 A32       0.162000
     48 HN21         2.5110    -0.6230     0.3850 hn         1 A32       0.317500
     49 H2'2         9.9410     0.1050     1.3860 h1         1 A32       0.051450
     50 H3'1         8.5540     2.4260    -0.0970 h1         1 A32       0.041450
     51 H3'2         8.4200     2.0600     1.6280 h1         1 A32       0.041450
     52 H5'1         6.8190    -0.8090    -1.0870 h1         1 A32       0.041450
     53 H5'2         7.5420     0.6440    -1.7900 h1         1 A32       0.041450
     54 H6A1         9.1450    -1.2250    -1.9450 h1         1 A32       0.051450
     55 H6'2         9.0050    -1.5580    -0.2020 h1         1 A32       0.051450
     56 H7'1         6.0000     2.1400    -0.3880 h1         1 A32       0.034200
     57 H7'2         6.0250     1.9620     1.3680 h1         1 A32       0.034200
     58 H8'1         4.9380    -0.3040     1.1260 hc         1 A32       0.053700
     59 H8'2         4.7780    -0.0080    -0.6100 hc         1 A32       0.053700
     60 H9'1         3.4060     2.0310    -0.1510 h1         1 A32       0.053700
     61 H9'2         3.5530     1.7300     1.5980 h1         1 A32       0.053700
     62 H2A1        10.7180     1.5600     0.7150 h1         1 A32       0.051450
@<TRIPOS>BOND
     1     1     2 1   
     2     1     3 1   
     3     1    10 1   
     4     1    34 1   
     5     2    13 1   
     6     3     4 1   
     7     3     5 1   
     8     3    35 1   
     9     4    36 1   
    10     5     6 1   
    11     5     7 1   
    12     5    37 1   
    13     6    38 1   
    14     7     8 1   
    15     7     9 1   
    16     7    39 1   
    17     8    40 1   
    18     9    10 1   
    19     9    11 1   
    20     9    41 1   
    21    11    12 1   
    22    11    42 1   
    23    11    43 1   
    24    12    44 1   
    25    13    14 ar  
    26    13    18 ar  
    27    14    15 ar  
    28    14    45 1   
    29    15    16 ar  
    30    15    19 1   
    31    16    17 ar  
    32    16    46 1   
    33    17    18 ar  
    34    17    22 1   
    35    18    47 1   
    36    19    20 1   
    37    19    21 1   
    38    22    23 2   
    39    22    24 1   
    40    24    33 1   
    41    24    48 1   
    42    25    26 1   
    43    25    30 1   
    44    26    27 1   
    45    26    49 1   
    46    26    62 1   
    47    27    28 1   
    48    27    50 1   
    49    27    51 1   
    50    28    29 1   
    51    28    31 1   
    52    29    30 1   
    53    29    52 1   
    54    29    53 1   
    55    30    54 1   
    56    30    55 1   
    57    31    32 1   
    58    31    56 1   
    59    31    57 1   
    60    32    33 1   
    61    32    58 1   
    62    32    59 1   
    63    33    60 1   
    64    33    61 1   
@<TRIPOS>SUBSTRUCTURE
     1 A32         1 TEMP              0 ****  ****    0 ROOT
