@<TRIPOS>MOLECULE
A32
   62    64     1     0     0
SMALL
bcc


@<TRIPOS>ATOM
      1 C1          -3.9500     0.8660     0.8380 c6         1 A32       0.316900
      2 O1          -3.5640    -0.4840     0.6790 os         1 A32      -0.340900
      3 C2          -5.3870     0.8590     1.3670 c6         1 A32       0.092100
      4 O2          -5.5280     0.0530     2.5070 oh         1 A32      -0.584800
      5 C3          -6.3400     0.3520     0.2920 c6         1 A32       0.115100
      6 O3          -7.6840     0.4740     0.6900 oh         1 A32      -0.607800
      7 C4          -6.1600     1.1750    -0.9830 c6         1 A32       0.123100
      8 O4          -6.5510     2.5130    -0.7960 oh         1 A32      -0.592800
      9 C5          -4.6970     1.1390    -1.4010 c6         1 A32       0.146100
     10 O5          -3.8450     1.5750    -0.3460 os         1 A32      -0.392600
     11 C6          -4.4170     2.0120    -2.6050 c3         1 A32       0.148400
     12 O6          -3.1110     1.7430    -3.0570 oh         1 A32      -0.590800
     13 C10         -2.2810    -0.7960     0.4270 ca         1 A32       0.136100
     14 C11         -2.0120    -2.1580     0.3170 ca         1 A32      -0.091000
     15 C12         -0.7150    -2.5640     0.0760 ca         1 A32      -0.153200
     16 C13          0.3370    -1.6700    -0.0460 ca         1 A32      -0.086000
     17 C14          0.0550    -0.3180     0.0690 ca         1 A32      -0.126600
     18 C15         -1.2490     0.1250     0.2750 ca         1 A32      -0.112000
     19 N1          -0.4450    -3.9920    -0.0610 no         1 A32       0.315200
     20 O7           0.6870    -4.3290    -0.3150 o          1 A32      -0.206000
     21 O8          -1.3630    -4.7600     0.0870 o          1 A32      -0.206000
     22 C7           1.1230     0.7270    -0.0750 c          1 A32       0.676700
     23 O9           0.8570     1.8370    -0.5120 o          1 A32      -0.587100
     24 N2           2.3530     0.3560     0.3040 ns         1 A32      -0.566900
     25 O1B          9.9700     0.0670    -0.1270 os         1 A32      -0.402600
     26 C2B          9.6290     0.8570     0.9910 c6         1 A32       0.129900
     27 C3B          8.3340     1.6120     0.7630 c6         1 A32       0.126300
     28 N4           7.2570     0.6850     0.4640 n3         1 A32      -0.717600
     29 C5B          7.6170    -0.1220    -0.6890 c6         1 A32       0.126300
     30 C6B          8.9320    -0.8350    -0.4370 c6         1 A32       0.129900
     31 C7B          5.9960     1.3800     0.2960 c3         1 A32       0.171800
     32 C8           4.7900     0.4510     0.3080 c3         1 A32      -0.097400
     33 C9           3.4950     1.2460     0.2480 c3         1 A32       0.099000
     34 H11         -3.2860     1.3610     1.5560 h2         1 A32       0.080700
     35 H21         -5.6390     1.9040     1.5860 h1         1 A32       0.070700
     36 HO21        -5.2650     0.5580     3.2820 ho         1 A32       0.414000
     37 H31         -6.0970    -0.6940     0.0570 h1         1 A32       0.069700
     38 HO31        -7.7830     0.0670     1.5570 ho         1 A32       0.431000
     39 H41         -6.7440     0.7000    -1.7850 h1         1 A32       0.057700
     40 HO41        -7.4330     2.5110    -0.4080 ho         1 A32       0.425000
     41 H51         -4.4640     0.1010    -1.6740 h1         1 A32       0.066700
     42 H61         -4.5470     3.0670    -2.3390 h1         1 A32       0.039700
     43 H62         -5.1690     1.7770    -3.3700 h1         1 A32       0.039700
     44 HO1         -2.9160     2.3510    -3.7750 ho         1 A32       0.410000
     45 H2'1        -2.8200    -2.8690     0.4170 ha         1 A32       0.183000
     46 H4'1         1.3360    -2.0210    -0.2560 ha         1 A32       0.171000
     47 H6'1        -1.4270     1.1890     0.3130 ha         1 A32       0.180000
     48 HN21         2.4650    -0.4970     0.8290 hn         1 A32       0.317500
     49 H2'2         9.5320     0.2300     1.8900 h1         1 A32       0.051450
     50 H3'1         8.4770     2.3490    -0.0460 h1         1 A32       0.041450
     51 H3'2         8.0890     2.1720     1.6690 h1         1 A32       0.041450
     52 H5'1         6.8540    -0.8800    -0.8710 h1         1 A32       0.041450
     53 H5'2         7.6910     0.4910    -1.6050 h1         1 A32       0.041450
     54 H6A1         9.2340    -1.3880    -1.3280 h1         1 A32       0.051450
     55 H6'2         8.7960    -1.5590     0.3790 h1         1 A32       0.051450
     56 H7'1         5.9860     1.9860    -0.6280 h1         1 A32       0.034200
     57 H7'2         5.8950     2.0860     1.1250 h1         1 A32       0.034200
     58 H8'1         4.8180    -0.1530     1.2210 hc         1 A32       0.053700
     59 H8'2         4.8150    -0.2410    -0.5370 hc         1 A32       0.053700
     60 H9'1         3.4510     1.8190    -0.6790 h1         1 A32       0.053700
     61 H9'2         3.4550     1.9660     1.0720 h1         1 A32       0.053700
     62 H2A1        10.4470     1.5580     1.1580 h1         1 A32       0.051450
@<TRIPOS>BOND
     1     1     2 1   
     2     1     3 1   
     3     1    10 1   
     4     1    34 1   
     5     2    13 1   
     6     3     4 1   
     7     3     5 1   
     8     3    35 1   
     9     4    36 1   
    10     5     6 1   
    11     5     7 1   
    12     5    37 1   
    13     6    38 1   
    14     7     8 1   
    15     7     9 1   
    16     7    39 1   
    17     8    40 1   
    18     9    10 1   
    19     9    11 1   
    20     9    41 1   
    21    11    12 1   
    22    11    42 1   
    23    11    43 1   
    24    12    44 1   
    25    13    14 ar  
    26    13    18 ar  
    27    14    15 ar  
    28    14    45 1   
    29    15    16 ar  
    30    15    19 1   
    31    16    17 ar  
    32    16    46 1   
    33    17    18 ar  
    34    17    22 1   
    35    18    47 1   
    36    19    20 1   
    37    19    21 1   
    38    22    23 2   
    39    22    24 1   
    40    24    33 1   
    41    24    48 1   
    42    25    26 1   
    43    25    30 1   
    44    26    27 1   
    45    26    49 1   
    46    26    62 1   
    47    27    28 1   
    48    27    50 1   
    49    27    51 1   
    50    28    29 1   
    51    28    31 1   
    52    29    30 1   
    53    29    52 1   
    54    29    53 1   
    55    30    54 1   
    56    30    55 1   
    57    31    32 1   
    58    31    56 1   
    59    31    57 1   
    60    32    33 1   
    61    32    58 1   
    62    32    59 1   
    63    33    60 1   
    64    33    61 1   
@<TRIPOS>SUBSTRUCTURE
     1 A32         1 TEMP              0 ****  ****    0 ROOT
