@<TRIPOS>MOLECULE
A33
   19    18     1     0     0
SMALL
No Charge or Current Charge


@<TRIPOS>ATOM
      1 C1           2.5340     0.5090     0.0240 c          1 A33       0.727000
      2 C2           1.2090     1.1530    -0.4510 c3         1 A33      -0.176400
      3 C3          -0.0370     0.3420     0.0440 c3         1 A33       0.074200
      4 C4          -1.3370     1.0290    -0.5030 c3         1 A33      -0.176400
      5 C5          -2.6250     0.2700    -0.0950 c          1 A33       0.727000
      6 O92          0.0890    -1.3630    -1.7350 o          1 A33      -0.769500
      7 C9           0.0670    -1.1720    -0.5210 c          1 A33       0.780000
      8 O91          0.1310    -2.1050     0.2770 o          1 A33      -0.769500
      9 O12          2.9680     0.8180     1.1250 o          1 A33      -0.784500
     10 O11          3.1040    -0.2800    -0.7150 o          1 A33      -0.784500
     11 NZ          -0.0450     0.5010     1.5410 n8         1 A33      -0.948200
     12 O51         -3.2360     0.6380     0.9000 o          1 A33      -0.784500
     13 O52         -3.0310    -0.6260    -0.8210 o          1 A33      -0.784500
     14 H21          1.1100     2.1610    -0.0240 hc         1 A33      -0.009300
     15 H22          1.1670     1.1580    -1.5480 hc         1 A33      -0.009300
     16 H41         -1.3520     2.0490    -0.0940 hc         1 A33      -0.009300
     17 H42         -1.2370     1.0160    -1.5960 hc         1 A33      -0.009300
     18 HZ1          0.9340     0.4860     1.8530 hn         1 A33       0.353000
     19 HZ2         -0.3590     1.4490     1.7610 hn         1 A33       0.353000
@<TRIPOS>BOND
     1     1     2 1   
     2     1     9 1   
     3     1    10 1   
     4     2     3 1   
     5     2    14 1   
     6     2    15 1   
     7     3     4 1   
     8     3     7 1   
     9     3    11 1   
    10     4     5 1   
    11     4    16 1   
    12     4    17 1   
    13     5    12 1   
    14     5    13 1   
    15     6     7 1   
    16     7     8 1   
    17    11    18 1   
    18    11    19 1   
@<TRIPOS>SUBSTRUCTURE
     1 A33         1 TEMP              0 ****  ****    0 ROOT
