@<TRIPOS>MOLECULE
A33
   19    18     1     0     0
SMALL
bcc


@<TRIPOS>ATOM
      1 C1           2.5630     0.5330    -0.1570 c          1 A33       0.937600
      2 C2           1.1680     1.0620    -0.5190 c3         1 A33      -0.176400
      3 C3          -0.0500     0.3320     0.0840 c3         1 A33       0.074200
      4 C4          -1.3020     0.9530    -0.5540 c3         1 A33      -0.176400
      5 C5          -2.6180     0.4200     0.0170 c          1 A33       0.937600
      6 O92          0.2360    -1.4110    -1.5010 o          1 A33      -0.874800
      7 C9           0.0510    -1.1690    -0.2860 c          1 A33       0.990600
      8 O91         -0.0150    -2.0200     0.6180 o          1 A33      -0.874800
      9 O12          2.7090    -0.0640     0.9320 o          1 A33      -0.889800
     10 O11          3.4780     0.7740    -0.9740 o          1 A33      -0.889800
     11 NZ          -0.1520     0.4970     1.5300 n8         1 A33      -0.837800
     12 O51         -3.3280     1.2120     0.6760 o          1 A33      -0.889800
     13 O52         -2.8980    -0.7710    -0.2320 o          1 A33      -0.889800
     14 H21          1.1190     2.1140    -0.2020 hc         1 A33      -0.009300
     15 H22          1.0810     1.0850    -1.6070 hc         1 A33      -0.009300
     16 H41         -1.2490     2.0400    -0.4210 hc         1 A33      -0.009300
     17 H42         -1.2640     0.7650    -1.6300 hc         1 A33      -0.009300
     18 HZ1          0.7330     0.1890     1.9170 hn         1 A33       0.297800
     19 HZ2         -0.2080     1.4910     1.7300 hn         1 A33       0.297800
@<TRIPOS>BOND
     1     1     2 1   
     2     1     9 1   
     3     1    10 1   
     4     2     3 1   
     5     2    14 1   
     6     2    15 1   
     7     3     4 1   
     8     3     7 1   
     9     3    11 1   
    10     4     5 1   
    11     4    16 1   
    12     4    17 1   
    13     5    12 1   
    14     5    13 1   
    15     6     7 1   
    16     7     8 1   
    17    11    18 1   
    18    11    19 1   
@<TRIPOS>SUBSTRUCTURE
     1 A33         1 TEMP              0 ****  ****    0 ROOT
