@<TRIPOS>MOLECULE
A36
   40    40     1     0     0
SMALL
No Charge or Current Charge


@<TRIPOS>ATOM
      1 S            0.4660     1.0360     0.9360 s6         1 A36       1.185100
      2 N1          -1.1490     1.3080     0.6190 n7         1 A36      -0.890300
      3 O1           1.0550     2.3610     1.1340 o          1 A36      -0.523000
      4 C2           3.0410    -1.2360    -0.1520 ca         1 A36      -0.059500
      5 N2          -4.4710    -0.4780    -0.2540 n3         1 A36      -0.737600
      6 O2           0.5140     0.0410     2.0100 o          1 A36      -0.523000
      7 C3           2.5690     0.0130    -0.6020 ca         1 A36      -0.095300
      8 C4           1.0740     0.3120    -0.6030 c3         1 A36      -0.278100
      9 C6          -5.7500     1.0100    -1.9050 c3         1 A36      -0.089600
     10 C7           3.4860     0.9830    -1.0540 ca         1 A36      -0.059500
     11 C8           4.8650     0.7060    -1.0530 ca         1 A36      -0.150000
     12 C9           5.3270    -0.5400    -0.6030 ca         1 A36       0.182000
     13 C10          4.4200    -1.5120    -0.1530 ca         1 A36      -0.150000
     14 C11         -2.0420     0.1450     0.4130 c3         1 A36       0.206800
     15 C12         -3.5070     0.5980     0.1450 c3         1 A36       0.167800
     16 C13         -4.5990    -1.5440     0.7830 c3         1 A36       0.169800
     17 C15         -5.7930     0.0640    -0.6870 c3         1 A36       0.169800
     18 C14         -5.3970    -2.7920     0.3500 c3         1 A36      -0.089600
     19 F01          6.6510    -0.8060    -0.6030 f          1 A36      -0.177000
     20 H1          -1.0920     1.8380    -0.2500 hn         1 A36       0.483000
     21 H41C         0.5070    -0.6110    -0.7590 h1         1 A36       0.093200
     22 H42C         0.8280     1.0210    -1.4000 h1         1 A36       0.093200
     23 H111        -1.7090    -0.4620    -0.4390 h1         1 A36       0.055700
     24 H112        -2.0290    -0.4960     1.3040 h1         1 A36       0.055700
     25 H2           2.3410    -1.9920     0.1980 ha         1 A36       0.124000
     26 H10          4.7860    -2.4740     0.1950 ha         1 A36       0.136000
     27 H121        -3.4480     1.3510    -0.6500 h1         1 A36       0.044200
     28 H122        -3.8760     1.1150     1.0410 h1         1 A36       0.044200
     29 H131        -3.6040    -1.9080     1.0670 h1         1 A36       0.032700
     30 H132        -5.0580    -1.1320     1.6920 h1         1 A36       0.032700
     31 H151        -6.4580    -0.7600    -0.9710 h1         1 A36       0.032700
     32 H152        -6.2770     0.5890     0.1490 h1         1 A36       0.032700
     33 H7           3.1320     1.9510    -1.4040 ha         1 A36       0.124000
     34 H61C        -6.7690     1.2130    -2.2560 hc         1 A36       0.036867
     35 H62C        -5.2910     1.9730    -1.6520 hc         1 A36       0.036867
     36 H63C        -5.1900     0.5550    -2.7300 hc         1 A36       0.036867
     37 H8           5.5730     1.4530    -1.4010 ha         1 A36       0.136000
     38 H141        -5.0250    -3.1770    -0.6070 hc         1 A36       0.036867
     39 H142        -5.2890    -3.5830     1.1010 hc         1 A36       0.036867
     40 H143        -6.4660    -2.5730     0.2530 hc         1 A36       0.036867
@<TRIPOS>BOND
     1     1     2 1   
     2     1     3 2   
     3     1     6 2   
     4     1     8 1   
     5     2    14 1   
     6     2    20 1   
     7     4     7 ar  
     8     4    13 ar  
     9     4    25 1   
    10     5    15 1   
    11     5    16 1   
    12     5    17 1   
    13     7     8 1   
    14     7    10 ar  
    15     8    21 1   
    16     8    22 1   
    17     9    17 1   
    18     9    34 1   
    19     9    35 1   
    20     9    36 1   
    21    10    11 ar  
    22    10    33 1   
    23    11    12 ar  
    24    11    37 1   
    25    12    13 ar  
    26    12    19 1   
    27    13    26 1   
    28    14    15 1   
    29    14    23 1   
    30    14    24 1   
    31    15    27 1   
    32    15    28 1   
    33    16    18 1   
    34    16    29 1   
    35    16    30 1   
    36    17    31 1   
    37    17    32 1   
    38    18    38 1   
    39    18    39 1   
    40    18    40 1   
@<TRIPOS>SUBSTRUCTURE
     1 A36         1 TEMP              0 ****  ****    0 ROOT
