@<TRIPOS>MOLECULE
A36
   40    40     1     0     0
SMALL
bcc


@<TRIPOS>ATOM
      1 S            0.3680     1.0220     0.4440 s6         1 A36       1.215900
      2 N1          -1.1860     1.3430     0.0350 n7         1 A36      -0.835100
      3 O1           1.0030     2.3000     0.7220 o          1 A36      -0.593800
      4 C2           2.9070    -1.2780    -0.1610 ca         1 A36      -0.077500
      5 N2          -4.4850    -0.3850    -0.1300 n3         1 A36      -0.737600
      6 O2           0.3480    -0.0030     1.4780 o          1 A36      -0.593800
      7 C3           2.5830    -0.0310    -0.6890 ca         1 A36      -0.095300
      8 C4           1.1630     0.3120    -1.0100 c3         1 A36      -0.167300
      9 C6          -6.0430     0.9080    -1.5640 c3         1 A36      -0.089600
     10 C7           3.5930     0.9090    -0.8740 ca         1 A36      -0.077500
     11 C8           4.9090     0.6120    -0.5530 ca         1 A36      -0.168000
     12 C9           5.1940    -0.6360    -0.0350 ca         1 A36       0.146900
     13 C10          4.2170    -1.5920     0.1650 ca         1 A36      -0.168000
     14 C11         -2.1170     0.2620    -0.2760 c3         1 A36       0.206800
     15 C12         -3.5130     0.6370     0.2070 c3         1 A36       0.167800
     16 C13         -4.4380    -1.5080     0.7970 c3         1 A36       0.169800
     17 C15         -5.8290     0.1660    -0.2550 c3         1 A36       0.169800
     18 C14         -4.9900    -2.7910     0.1990 c3         1 A36      -0.089600
     19 F01          6.4650    -0.9330     0.2800 f          1 A36      -0.141900
     20 H1          -1.2670     2.1580    -0.5630 hn         1 A36       0.427800
     21 H41C         0.5810    -0.5650    -1.2990 h1         1 A36       0.093200
     22 H42C         1.0830     1.0570    -1.8030 h1         1 A36       0.093200
     23 H111        -2.1420     0.0560    -1.3480 h1         1 A36       0.055700
     24 H112        -1.7740    -0.6440     0.2240 h1         1 A36       0.055700
     25 H2           2.1340    -2.0210    -0.0130 ha         1 A36       0.142000
     26 H10          4.4730    -2.5630     0.5690 ha         1 A36       0.154000
     27 H121        -3.7980     1.5710    -0.2820 h1         1 A36       0.044200
     28 H122        -3.4810     0.8490     1.2870 h1         1 A36       0.044200
     29 H131        -3.3970    -1.6890     1.0730 h1         1 A36       0.032700
     30 H132        -4.9590    -1.2690     1.7390 h1         1 A36       0.032700
     31 H151        -6.5440    -0.6560    -0.2060 h1         1 A36       0.032700
     32 H152        -6.0680     0.8260     0.5940 h1         1 A36       0.032700
     33 H7           3.3560     1.8820    -1.2850 ha         1 A36       0.142000
     34 H61C        -7.0580     1.3040    -1.6130 hc         1 A36       0.036867
     35 H62C        -5.3610     1.7520    -1.6780 hc         1 A36       0.036867
     36 H63C        -5.8970     0.2410    -2.4140 hc         1 A36       0.036867
     37 H8           5.6960     1.3390    -0.7020 ha         1 A36       0.154000
     38 H141        -4.4210    -3.0770    -0.6860 hc         1 A36       0.036867
     39 H142        -4.9240    -3.6040     0.9220 hc         1 A36       0.036867
     40 H143        -6.0370    -2.7010    -0.0920 hc         1 A36       0.036867
@<TRIPOS>BOND
     1     1     2 1   
     2     1     3 2   
     3     1     6 2   
     4     1     8 1   
     5     2    14 1   
     6     2    20 1   
     7     4     7 ar  
     8     4    13 ar  
     9     4    25 1   
    10     5    15 1   
    11     5    16 1   
    12     5    17 1   
    13     7     8 1   
    14     7    10 ar  
    15     8    21 1   
    16     8    22 1   
    17     9    17 1   
    18     9    34 1   
    19     9    35 1   
    20     9    36 1   
    21    10    11 ar  
    22    10    33 1   
    23    11    12 ar  
    24    11    37 1   
    25    12    13 ar  
    26    12    19 1   
    27    13    26 1   
    28    14    15 1   
    29    14    23 1   
    30    14    24 1   
    31    15    27 1   
    32    15    28 1   
    33    16    18 1   
    34    16    29 1   
    35    16    30 1   
    36    17    31 1   
    37    17    32 1   
    38    18    38 1   
    39    18    39 1   
    40    18    40 1   
@<TRIPOS>SUBSTRUCTURE
     1 A36         1 TEMP              0 ****  ****    0 ROOT
