@<TRIPOS>MOLECULE
A37
   29    31     1     0     0
SMALL
No Charge or Current Charge


@<TRIPOS>ATOM
      1 C            1.9360    -0.9050     2.0040 ca         1 A37      -0.117000
      2 C2           1.8200    -2.2080     1.4920 ca         1 A37      -0.040000
      3 C3           1.8170    -2.4140     0.1050 ca         1 A37       0.094000
      4 C4           1.9350    -1.3220    -0.7700 ca         1 A37       0.019000
      5 C5           2.0590    -0.0070    -0.2620 ca         1 A37      -0.275500
      6 C6           2.0540     0.1960     1.1380 ca         1 A37       0.200000
      7 S            2.1820     1.3630    -1.4230 sy         1 A37       1.209600
      8 O            3.2150     2.3010    -0.9840 o          1 A37      -0.508500
      9 O9           2.1280     0.8690    -2.8020 o          1 A37      -0.508500
     10 N            0.8000     2.2570    -1.2530 nu         1 A37      -0.836300
     11 C11         -0.3230     1.7100    -0.7830 cc         1 A37       0.778500
     12 N12         -0.8780     0.6050    -1.2850 nd         1 A37      -0.621100
     13 C13         -1.9760     0.4720    -0.4650 ca         1 A37       0.096400
     14 C14         -2.9580    -0.5270    -0.4810 ca         1 A37      -0.050000
     15 C15         -3.9960    -0.4510     0.4720 ca         1 A37       0.112000
     16 Cl1         -5.2520    -1.6820     0.4950 cl         1 A37      -0.192000
     17 C17         -4.0350     0.6070     1.4120 ca         1 A37      -0.097000
     18 C18         -3.0320     1.6010     1.4040 ca         1 A37      -0.072000
     19 C19         -2.0190     1.4910     0.4430 ca         1 A37       0.016100
     20 O20         -0.9710     2.3300     0.2680 os         1 A37      -0.285700
     21 Cl2          1.6600    -4.0440    -0.5390 cl         1 A37      -0.174000
     22 Cl3          2.1490     1.7980     1.8690 cl         1 A37      -0.164000
     23 H            1.9280    -0.7450     3.0790 ha         1 A37       0.138000
     24 H2           1.7260    -3.0550     2.1680 ha         1 A37       0.138000
     25 H4           1.9220    -1.5100    -1.8430 ha         1 A37       0.168000
     26 HN           1.0910     3.0320    -0.6820 hn         1 A37       0.543000
     27 H14         -2.9200    -1.3350    -1.2040 ha         1 A37       0.152000
     28 H17         -4.8400     0.6540     2.1410 ha         1 A37       0.137000
     29 H18         -3.0430     2.4220     2.1170 ha         1 A37       0.140000
@<TRIPOS>BOND
     1     1     2 ar  
     2     1     6 ar  
     3     1    23 1   
     4     2     3 ar  
     5     2    24 1   
     6     3     4 ar  
     7     3    21 1   
     8     4     5 ar  
     9     4    25 1   
    10     5     6 ar  
    11     5     7 1   
    12     6    22 1   
    13     7     8 2   
    14     7     9 2   
    15     7    10 1   
    16    10    11 1   
    17    10    26 1   
    18    11    12 2   
    19    11    20 1   
    20    12    13 1   
    21    13    14 ar  
    22    13    19 ar  
    23    14    15 ar  
    24    14    27 1   
    25    15    16 1   
    26    15    17 ar  
    27    17    18 ar  
    28    17    28 1   
    29    18    19 ar  
    30    18    29 1   
    31    19    20 1   
@<TRIPOS>SUBSTRUCTURE
     1 A37         1 TEMP              0 ****  ****    0 ROOT
