@<TRIPOS>MOLECULE
A37
   29    31     1     0     0
SMALL
abcg2


@<TRIPOS>ATOM
      1 C            2.8360    -1.1200     1.8990 ca         1 A37      -0.117000
      2 C2           2.6160    -2.3800     1.3680 ca         1 A37      -0.040000
      3 C3           2.1960    -2.5050     0.0530 ca         1 A37       0.094000
      4 C4           1.9970    -1.3880    -0.7380 ca         1 A37       0.019000
      5 C5           2.2300    -0.1310    -0.2010 ca         1 A37      -0.275500
      6 C6           2.6480     0.0100     1.1200 ca         1 A37       0.200000
      7 S            2.0110     1.2680    -1.2700 sy         1 A37       1.209600
      8 O            3.1610     2.1390    -1.1940 o          1 A37      -0.508500
      9 O9           1.5460     0.7850    -2.5480 o          1 A37      -0.508500
     10 N            0.7840     2.1280    -0.5320 nu         1 A37      -0.836300
     11 C11         -0.4580     1.6150    -0.3330 cc         1 A37       0.778500
     12 N12         -0.8860     0.4580    -0.6900 nd         1 A37      -0.621100
     13 C13         -2.1880     0.4420    -0.2230 ca         1 A37       0.096400
     14 C14         -3.1680    -0.5370    -0.2980 ca         1 A37      -0.050000
     15 C15         -4.3890    -0.2290     0.2840 ca         1 A37       0.112000
     16 CL1         -5.6570    -1.4110     0.2270 cl         1 A37      -0.192000
     17 C17         -4.6450     0.9880     0.9150 ca         1 A37      -0.097000
     18 C18         -3.6610     1.9680     0.9880 ca         1 A37      -0.072000
     19 C19         -2.4550     1.6510     0.4090 ca         1 A37       0.016100
     20 O20         -1.3180     2.4030     0.3280 os         1 A37      -0.285700
     21 CL2          1.9100    -4.0710    -0.6090 cl         1 A37      -0.174000
     22 CL3          2.9090     1.5510     1.8370 cl         1 A37      -0.164000
     23 H            3.1550    -1.0200     2.9270 ha         1 A37       0.138000
     24 H2           2.7690    -3.2550     1.9840 ha         1 A37       0.138000
     25 H4           1.6620    -1.4960    -1.7590 ha         1 A37       0.168000
     26 HN           1.0230     3.0380    -0.1550 hn         1 A37       0.543000
     27 H14         -2.9880    -1.4860    -0.7840 ha         1 A37       0.152000
     28 H17         -5.6150     1.1750     1.3530 ha         1 A37       0.137000
     29 H18         -3.8460     2.9150     1.4750 ha         1 A37       0.140000
@<TRIPOS>BOND
     1     1     2 ar  
     2     1     6 ar  
     3     1    23 1   
     4     2     3 ar  
     5     2    24 1   
     6     3     4 ar  
     7     3    21 1   
     8     4     5 ar  
     9     4    25 1   
    10     5     6 ar  
    11     5     7 1   
    12     6    22 1   
    13     7     8 2   
    14     7     9 2   
    15     7    10 1   
    16    10    11 1   
    17    10    26 1   
    18    11    12 2   
    19    11    20 1   
    20    12    13 1   
    21    13    14 ar  
    22    13    19 ar  
    23    14    15 ar  
    24    14    27 1   
    25    15    16 1   
    26    15    17 ar  
    27    17    18 ar  
    28    17    28 1   
    29    18    19 ar  
    30    18    29 1   
    31    19    20 1   
@<TRIPOS>SUBSTRUCTURE
     1 A37         1 TEMP              0 ****  ****    0 ROOT
