@<TRIPOS>MOLECULE
A3B
   14    13     1     0     0
SMALL
No Charge or Current Charge


@<TRIPOS>ATOM
      1 CAA          2.2850     0.6160     0.8170 c2         1 A3B      -0.352000
      2 CAE          1.3570     0.9010    -0.1130 c2         1 A3B      -0.195200
      3 CAG          0.2810    -0.0410    -0.6110 c3         1 A3B      -0.045500
      4 CAF         -1.0650     0.1190     0.1920 c          1 A3B       0.730000
      5 OAD         -1.8510     0.9780    -0.1780 o          1 A3B      -0.655500
      6 OAC         -1.2780    -0.6570     1.1150 o          1 A3B      -0.655500
      7 NAB          0.7820    -1.4830    -0.6760 nz         1 A3B      -0.938000
      8 HAA1         2.3360    -0.3550     1.3110 ha         1 A3B       0.160000
      9 HAA2         3.0270     1.3560     1.1240 ha         1 A3B       0.160000
     10 HAE          1.3290     1.8920    -0.5800 ha         1 A3B       0.224000
     11 HAG          0.0220     0.2520    -1.6330 hx         1 A3B       0.093700
     12 HAB1         0.9070    -1.8890     0.2630 hn         1 A3B       0.491333
     13 HAB2         1.6890    -1.5780    -1.1550 hn         1 A3B       0.491333
     14 HAB3         0.1300    -2.1200    -1.1600 hn         1 A3B       0.491333
@<TRIPOS>BOND
     1     1     2 2   
     2     1     8 1   
     3     1     9 1   
     4     2     3 1   
     5     2    10 1   
     6     3     4 1   
     7     3     7 1   
     8     3    11 1   
     9     4     5 1   
    10     4     6 1   
    11     7    12 1   
    12     7    13 1   
    13     7    14 1   
@<TRIPOS>SUBSTRUCTURE
     1 A3B         1 TEMP              0 ****  ****    0 ROOT
