@<TRIPOS>MOLECULE
A3B
   14    13     1     0     0
SMALL
bcc


@<TRIPOS>ATOM
      1 CAA          2.3900     0.6040     0.6220 c2         1 A3B      -0.252000
      2 CAE          1.2760     0.9010    -0.0350 c2         1 A3B      -0.145200
      3 CAG          0.2900    -0.0570    -0.6150 c3         1 A3B      -0.017300
      4 CAF         -1.1050     0.0990     0.0640 c          1 A3B       0.940600
      5 OAD         -1.6100     1.2210    -0.0580 o          1 A3B      -0.760800
      6 OAC         -1.5400    -0.9070     0.6450 o          1 A3B      -0.760800
      7 NAB          0.7510    -1.4610    -0.4900 nz         1 A3B      -0.800600
      8 HAA1         2.7340    -0.4070     0.8070 ha         1 A3B       0.110000
      9 HAA2         3.0190     1.3930     1.0120 ha         1 A3B       0.110000
     10 HAE          0.9990     1.9380    -0.1780 ha         1 A3B       0.174000
     11 HAG          0.1820     0.1340    -1.6850 hx         1 A3B       0.093700
     12 HAB1         0.7820    -1.7590     0.4850 hn         1 A3B       0.436133
     13 HAB2         1.6740    -1.6090    -0.9000 hn         1 A3B       0.436133
     14 HAB3         0.1090    -2.0970    -0.9590 hn         1 A3B       0.436133
@<TRIPOS>BOND
     1     1     2 2   
     2     1     8 1   
     3     1     9 1   
     4     2     3 1   
     5     2    10 1   
     6     3     4 1   
     7     3     7 1   
     8     3    11 1   
     9     4     5 1   
    10     4     6 1   
    11     7    12 1   
    12     7    13 1   
    13     7    14 1   
@<TRIPOS>SUBSTRUCTURE
     1 A3B         1 TEMP              0 ****  ****    0 ROOT
