@<TRIPOS>MOLECULE
A3C
   63    64     1     0     0
SMALL
abcg2


@<TRIPOS>ATOM
      1 C01          2.2310    -2.2580    -0.9980 c3         1 A3C       0.237600
      2 O01          2.8980    -1.4720    -0.0420 os         1 A3C      -0.555400
      3 C02          1.4800    -3.3780    -0.3050 c3         1 A3C       0.167800
      4 P02          3.8920    -0.2670    -0.6110 p5         1 A3C       1.453800
      5 N03          0.4440    -2.9170     0.6010 n3         1 A3C      -0.666600
      6 O03          4.2290     0.3110     0.8480 os         1 A3C      -0.704800
      7 P04          4.8650     1.8900     1.1460 p5         1 A3C       1.350900
      8 O05          5.6870     1.6400     2.4030 o          1 A3C      -0.953833
      9 O06          3.0650     0.6690    -1.4470 o          1 A3C      -0.891000
     10 O07          5.0920    -0.9210    -1.2420 o          1 A3C      -0.891000
     11 O08          5.6750     2.2120    -0.1010 o          1 A3C      -0.953833
     12 O09          3.6310     2.7520     1.3600 o          1 A3C      -0.953833
     13 C11         -0.7380    -2.4430    -0.1000 c3         1 A3C       0.176800
     14 C12         -1.5280    -1.4160     0.7050 c3         1 A3C      -0.081400
     15 C13          0.1030    -3.9320     1.5730 c3         1 A3C       0.168100
     16 C21         -2.8340    -1.0240     0.0120 c6         1 A3C      -0.022500
     17 C22         -3.9170    -2.0740     0.1220 c2         1 A3C      -0.090400
     18 C23         -5.1220    -1.7900    -0.7220 c6         1 A3C      -0.045200
     19 C24         -5.6910    -0.4090    -0.4060 c6         1 A3C      -0.064400
     20 C25         -4.6130     0.6670    -0.5190 c6         1 A3C      -0.043700
     21 C26         -5.1810     2.1140    -0.5180 c6         1 A3C      -0.034000
     22 C27         -4.0160     3.0960    -0.6940 c6         1 A3C      -0.067400
     23 C28         -2.8830     2.8740     0.2920 c6         1 A3C      -0.071400
     24 C29         -2.3390     1.4560     0.1890 c6         1 A3C      -0.079400
     25 C30         -3.4070     0.3760     0.4270 c6         1 A3C      -0.021000
     26 C31         -3.8700    -3.1470     0.9110 c2         1 A3C      -0.344000
     27 C32         -6.0000     2.4730     0.7260 c3         1 A3C      -0.078600
     28 C33         -6.1030     2.2930    -1.7340 c3         1 A3C      -0.078600
     29 C34         -3.7580     0.3290     1.9170 c3         1 A3C      -0.079100
     30 H01          1.5480    -1.6460    -1.6000 h1         1 A3C      -0.005300
     31 H01A         2.9360    -2.7210    -1.7020 h1         1 A3C      -0.005300
     32 H02          1.0820    -4.0550    -1.0810 h1         1 A3C      -0.002300
     33 H02A         2.2010    -3.9670     0.2680 h1         1 A3C      -0.002300
     34 H11         -0.4300    -1.9560    -1.0270 h1         1 A3C       0.018200
     35 H11A        -1.3790    -3.2870    -0.4020 h1         1 A3C       0.018200
     36 H12         -1.7240    -1.7760     1.7180 hc         1 A3C       0.068200
     37 H12A        -0.8820    -0.5450     0.8200 hc         1 A3C       0.068200
     38 H13          0.9870    -4.2230     2.1420 h1         1 A3C       0.003700
     39 H13A        -0.6280    -3.5500     2.2870 h1         1 A3C       0.003700
     40 H13B        -0.3210    -4.8440     1.1210 h1         1 A3C       0.003700
     41 H21         -2.6070    -0.9280    -1.0620 hc         1 A3C       0.053700
     42 H23         -4.8350    -1.8150    -1.7800 hc         1 A3C       0.030700
     43 H23A        -5.8840    -2.5600    -0.5820 hc         1 A3C       0.030700
     44 H24         -6.5060    -0.2010    -1.1010 hc         1 A3C       0.025200
     45 H24A        -6.1340    -0.4190     0.5940 hc         1 A3C       0.025200
     46 H25         -4.1880     0.5590    -1.5300 hc         1 A3C       0.043700
     47 H27         -3.6180     2.9840    -1.7110 hc         1 A3C       0.030200
     48 H27A        -4.3950     4.1210    -0.6250 hc         1 A3C       0.030200
     49 H28         -2.0760     3.5860     0.0950 hc         1 A3C       0.047200
     50 H28A        -3.2180     3.0830     1.3130 hc         1 A3C       0.047200
     51 H29         -1.9110     1.3150    -0.8120 hc         1 A3C       0.078700
     52 H29A        -1.5160     1.3390     0.8970 hc         1 A3C       0.078700
     53 H31         -3.0230    -3.3840     1.5420 ha         1 A3C       0.155500
     54 H31A        -4.6980    -3.8450     0.9480 ha         1 A3C       0.155500
     55 H32         -5.4070     2.5240     1.6370 hc         1 A3C       0.022200
     56 H32A        -6.4660     3.4520     0.5950 hc         1 A3C       0.022200
     57 H32B        -6.8020     1.7530     0.8970 hc         1 A3C       0.022200
     58 H33         -7.0520     1.7660    -1.6250 hc         1 A3C       0.022200
     59 H33A        -6.3380     3.3500    -1.8750 hc         1 A3C       0.022200
     60 H33B        -5.6260     1.9370    -2.6500 hc         1 A3C       0.022200
     61 H34         -4.0640     1.2950     2.3130 hc         1 A3C       0.028700
     62 H34A        -4.5520    -0.3840     2.1380 hc         1 A3C       0.028700
     63 H34B        -2.8840     0.0200     2.4940 hc         1 A3C       0.028700
@<TRIPOS>BOND
     1     1     2 1   
     2     1     3 1   
     3     1    30 1   
     4     1    31 1   
     5     2     4 1   
     6     3     5 1   
     7     3    32 1   
     8     3    33 1   
     9     4     6 1   
    10     4     9 1   
    11     4    10 1   
    12     5    13 1   
    13     5    15 1   
    14     6     7 1   
    15     7     8 1   
    16     7    11 1   
    17     7    12 1   
    18    13    14 1   
    19    13    34 1   
    20    13    35 1   
    21    14    16 1   
    22    14    36 1   
    23    14    37 1   
    24    15    38 1   
    25    15    39 1   
    26    15    40 1   
    27    16    17 1   
    28    16    25 1   
    29    16    41 1   
    30    17    18 1   
    31    17    26 2   
    32    18    19 1   
    33    18    42 1   
    34    18    43 1   
    35    19    20 1   
    36    19    44 1   
    37    19    45 1   
    38    20    21 1   
    39    20    25 1   
    40    20    46 1   
    41    21    22 1   
    42    21    27 1   
    43    21    28 1   
    44    22    23 1   
    45    22    47 1   
    46    22    48 1   
    47    23    24 1   
    48    23    49 1   
    49    23    50 1   
    50    24    25 1   
    51    24    51 1   
    52    24    52 1   
    53    25    29 1   
    54    26    53 1   
    55    26    54 1   
    56    27    55 1   
    57    27    56 1   
    58    27    57 1   
    59    28    58 1   
    60    28    59 1   
    61    28    60 1   
    62    29    61 1   
    63    29    62 1   
    64    29    63 1   
@<TRIPOS>SUBSTRUCTURE
     1 A3C         1 TEMP              0 ****  ****    0 ROOT
