@<TRIPOS>MOLECULE
A3C
   63    64     1     0     0
SMALL
No Charge or Current Charge


@<TRIPOS>ATOM
      1 C01          2.2610    -1.8170    -1.9220 c3         1 A3C       0.237600
      2 O01          2.9750    -0.5850    -1.7020 os         1 A3C      -0.555400
      3 C02          1.9480    -2.5840    -0.5930 c3         1 A3C       0.167800
      4 P02          4.5130    -0.5620    -1.1960 p5         1 A3C       1.453800
      5 N03          0.9660    -1.9600     0.3450 n3         1 A3C      -0.666600
      6 O03          4.2430    -0.5390     0.3650 os         1 A3C      -0.704800
      7 P04          5.3950    -0.0590     1.3310 p5         1 A3C       1.350900
      8 O05          5.1110    -0.6240     2.6800 o          1 A3C      -0.953833
      9 O06          5.1510     0.6820    -1.7320 o          1 A3C      -0.891000
     10 O07          5.2250    -1.7940    -1.6640 o          1 A3C      -0.891000
     11 O08          6.7420    -0.5430     0.9200 o          1 A3C      -0.953833
     12 O09          5.3910     1.4270     1.4510 o          1 A3C      -0.953833
     13 C11         -0.3930    -1.8090    -0.2440 c3         1 A3C       0.176800
     14 C12         -1.3990    -0.9990     0.6160 c3         1 A3C      -0.081400
     15 C13          0.9620    -2.6570     1.6500 c3         1 A3C       0.168100
     16 C21         -2.7660    -0.6910    -0.1030 c6         1 A3C      -0.022500
     17 C22         -3.5730    -1.9680    -0.4170 c2         1 A3C      -0.090400
     18 C23         -4.7630    -1.6930    -1.3610 c6         1 A3C      -0.045200
     19 C24         -5.7410    -0.5680    -0.8670 c6         1 A3C      -0.064400
     20 C25         -4.8860     0.7270    -0.4590 c6         1 A3C      -0.043700
     21 C26         -5.7700     1.9950    -0.1170 c6         1 A3C      -0.034000
     22 C27         -4.8210     3.1920     0.2100 c6         1 A3C      -0.067400
     23 C28         -3.7840     2.8850     1.3180 c6         1 A3C      -0.071400
     24 C29         -2.8690     1.6940     0.9430 c6         1 A3C      -0.079400
     25 C30         -3.7050     0.3850     0.5970 c6         1 A3C      -0.021000
     26 C31         -3.3760    -3.1900     0.1120 c2         1 A3C      -0.344000
     27 C32         -6.8130     1.7800     1.0330 c3         1 A3C      -0.078600
     28 C33         -6.6230     2.4020    -1.3650 c3         1 A3C      -0.078600
     29 C34         -4.2390    -0.2290     1.9420 c3         1 A3C      -0.079100
     30 H01          1.3310    -1.6160    -2.4670 h1         1 A3C      -0.005300
     31 H01A         2.8520    -2.4780    -2.5680 h1         1 A3C      -0.005300
     32 H02          1.5710    -3.5760    -0.8740 h1         1 A3C      -0.002300
     33 H02A         2.8950    -2.7650    -0.0690 h1         1 A3C      -0.002300
     34 H11         -0.3160    -1.2850    -1.2040 h1         1 A3C       0.018200
     35 H11A        -0.8080    -2.8010    -0.4610 h1         1 A3C       0.018200
     36 H12         -1.5780    -1.5160     1.5630 hc         1 A3C       0.068200
     37 H12A        -0.8840    -0.0680     0.8730 hc         1 A3C       0.068200
     38 H13          1.9840    -2.7640     2.0350 h1         1 A3C       0.003700
     39 H13A         0.3890    -2.0960     2.3990 h1         1 A3C       0.003700
     40 H13B         0.5240    -3.6600     1.5540 h1         1 A3C       0.003700
     41 H21         -2.4560    -0.2650    -1.0680 hc         1 A3C       0.053700
     42 H23         -4.3660    -1.4090    -2.3450 hc         1 A3C       0.030700
     43 H23A        -5.3360    -2.6150    -1.5290 hc         1 A3C       0.030700
     44 H24         -6.4720    -0.3920    -1.6830 hc         1 A3C       0.025200
     45 H24A        -6.3480    -0.9860    -0.0380 hc         1 A3C       0.025200
     46 H25         -4.3580     1.0130    -1.3810 hc         1 A3C       0.043700
     47 H27         -4.2800     3.4900    -0.6990 hc         1 A3C       0.030200
     48 H27A        -5.4140     4.0690     0.5050 hc         1 A3C       0.030200
     49 H28         -3.1610     3.7750     1.4780 hc         1 A3C       0.047200
     50 H28A        -4.2860     2.7050     2.2760 hc         1 A3C       0.047200
     51 H29         -2.2530     1.9790     0.0790 hc         1 A3C       0.078700
     52 H29A        -2.1760     1.5090     1.7750 hc         1 A3C       0.078700
     53 H31         -2.5850    -3.4120     0.8250 ha         1 A3C       0.155500
     54 H31A        -4.0260    -4.0270    -0.1440 ha         1 A3C       0.155500
     55 H32         -6.3620     1.6950     2.0220 hc         1 A3C       0.022200
     56 H32A        -7.5010     2.6320     1.0990 hc         1 A3C       0.022200
     57 H32B        -7.4290     0.8890     0.8690 hc         1 A3C       0.022200
     58 H33         -7.4070     1.6700    -1.5890 hc         1 A3C       0.022200
     59 H33A        -7.1250     3.3650    -1.2090 hc         1 A3C       0.022200
     60 H33B        -6.0010     2.5070    -2.2630 hc         1 A3C       0.022200
     61 H34         -4.7330     0.5000     2.5850 hc         1 A3C       0.028700
     62 H34A        -4.9450    -1.0500     1.7780 hc         1 A3C       0.028700
     63 H34B        -3.4220    -0.6330     2.5490 hc         1 A3C       0.028700
@<TRIPOS>BOND
     1     1     2 1   
     2     1     3 1   
     3     1    30 1   
     4     1    31 1   
     5     2     4 1   
     6     3     5 1   
     7     3    32 1   
     8     3    33 1   
     9     4     6 1   
    10     4     9 1   
    11     4    10 1   
    12     5    13 1   
    13     5    15 1   
    14     6     7 1   
    15     7     8 1   
    16     7    11 1   
    17     7    12 1   
    18    13    14 1   
    19    13    34 1   
    20    13    35 1   
    21    14    16 1   
    22    14    36 1   
    23    14    37 1   
    24    15    38 1   
    25    15    39 1   
    26    15    40 1   
    27    16    17 1   
    28    16    25 1   
    29    16    41 1   
    30    17    18 1   
    31    17    26 2   
    32    18    19 1   
    33    18    42 1   
    34    18    43 1   
    35    19    20 1   
    36    19    44 1   
    37    19    45 1   
    38    20    21 1   
    39    20    25 1   
    40    20    46 1   
    41    21    22 1   
    42    21    27 1   
    43    21    28 1   
    44    22    23 1   
    45    22    47 1   
    46    22    48 1   
    47    23    24 1   
    48    23    49 1   
    49    23    50 1   
    50    24    25 1   
    51    24    51 1   
    52    24    52 1   
    53    25    29 1   
    54    26    53 1   
    55    26    54 1   
    56    27    55 1   
    57    27    56 1   
    58    27    57 1   
    59    28    58 1   
    60    28    59 1   
    61    28    60 1   
    62    29    61 1   
    63    29    62 1   
    64    29    63 1   
@<TRIPOS>SUBSTRUCTURE
     1 A3C         1 TEMP              0 ****  ****    0 ROOT
