@<TRIPOS>MOLECULE
A3D
   71    75     1     0     0
SMALL
bcc


@<TRIPOS>ATOM
      1 PA          -0.9160     1.8610    -1.6280 p5         1 A3D       1.455800
      2 O1A         -0.2490     2.5170    -2.7930 o          1 A3D      -0.841000
      3 O2A         -2.1020     2.5040    -0.9750 o          1 A3D      -0.841000
      4 O5B         -1.2730     0.2970    -1.9910 os         1 A3D      -0.549200
      5 C5B         -2.3710     0.0560    -2.8400 c3         1 A3D       0.188400
      6 C4B         -2.9520    -1.3090    -2.5200 c5         1 A3D       0.134100
      7 O4B         -3.3000    -1.4040    -1.1360 os         1 A3D      -0.369600
      8 C3B         -4.2400    -1.5640    -3.2880 c5         1 A3D       0.076100
      9 O3B         -4.4240    -2.9480    -3.4270 oh         1 A3D      -0.591800
     10 C2B         -5.2700    -0.9690    -2.3230 c5         1 A3D       0.048100
     11 O2B         -6.5660    -1.4680    -2.4580 oh         1 A3D      -0.580800
     12 C1B         -4.6880    -1.3920    -0.9730 c5         1 A3D       0.269800
     13 N9A         -5.0350    -0.5090     0.1150 na         1 A3D      -0.266000
     14 C8A         -4.5460     0.7480     0.3590 cc         1 A3D       0.455700
     15 N7A         -5.0760     1.3040     1.4100 nd         1 A3D      -0.565100
     16 C5A         -5.9610     0.3720     1.8860 ca         1 A3D      -0.216200
     17 C6A         -6.8340     0.3550     2.9890 ca         1 A3D       0.765200
     18 N6A         -6.9440     1.3800     3.8370 nv         1 A3D      -0.967500
     19 N1A         -7.5720    -0.7430     3.1890 nb         1 A3D      -0.848000
     20 C2A         -7.4520    -1.7650     2.3460 ca         1 A3D       0.678900
     21 N3A         -6.6760    -1.8660     1.2810 nb         1 A3D      -0.739000
     22 C4A         -5.9490    -0.7660     1.0950 ca         1 A3D       0.439800
     23 O3           0.1860     1.4660    -0.4780 os         1 A3D      -0.683800
     24 PN           1.6200     2.2330    -0.2840 p5         1 A3D       1.473800
     25 O1N          2.6510     1.6650    -1.2180 o          1 A3D      -0.851500
     26 O2N          1.4310     3.7110    -0.1830 o          1 A3D      -0.851500
     27 O5D          1.8570     1.5940     1.2170 os         1 A3D      -0.532200
     28 C5D          3.0830     1.8530     1.8580 c3         1 A3D       0.191400
     29 C4D          3.4530     0.6440     2.6940 c5         1 A3D       0.127100
     30 O4D          3.5590    -0.5340     1.8670 os         1 A3D      -0.351600
     31 C3D          4.8130     0.7870     3.3620 c5         1 A3D       0.089100
     32 O3D          4.8400    -0.0210     4.5060 oh         1 A3D      -0.578800
     33 C2D          5.7320     0.2270     2.2720 c5         1 A3D       0.044100
     34 O2D          6.9620    -0.2570     2.7070 oh         1 A3D      -0.596800
     35 C1D          4.8720    -0.9280     1.7540 c5         1 A3D       0.229800
     36 N1N          5.2000    -1.2350     0.3360 na         1 A3D       0.006900
     37 C2N          6.1700    -2.1260     0.1100 ca         1 A3D      -0.003300
     38 C3N          6.5910    -2.4090    -1.1730 ca         1 A3D      -0.224600
     39 C7N          7.6840    -3.4210    -1.3530 c          1 A3D       0.595700
     40 O7N          8.1770    -3.9350    -0.3770 o          1 A3D      -0.507100
     41 C8N          8.1090    -3.7420    -2.7510 c3         1 A3D      -0.195100
     42 C4N          5.9750    -1.7470    -2.2300 ca         1 A3D      -0.019000
     43 C5N          4.9710    -0.8300    -1.9680 ca         1 A3D      -0.134000
     44 C6N          4.5940    -0.5830    -0.6690 ca         1 A3D       0.044700
     45 H51A        -3.1400     0.8290    -2.7290 h1         1 A3D       0.017200
     46 H52A        -2.0620     0.0600    -3.8920 h1         1 A3D       0.017200
     47 H4B         -2.2040    -2.0790    -2.7330 h1         1 A3D       0.091700
     48 H3B         -4.2450    -1.0520    -4.2600 h1         1 A3D       0.051700
     49 HO3A        -5.3640    -3.1110    -3.5670 ho         1 A3D       0.409000
     50 H2B         -5.2480     0.1260    -2.4050 h1         1 A3D       0.071700
     51 HO2A        -7.0180    -0.9760    -3.1520 ho         1 A3D       0.404000
     52 H1B         -5.0700    -2.3810    -0.6950 h2         1 A3D       0.099700
     53 H8A         -3.7770     1.2040    -0.2530 h5         1 A3D       0.147800
     54 H61A        -6.4350     2.2330     3.6880 hn         1 A3D       0.444300
     55 H62A        -7.5990     1.3410     4.5980 hn         1 A3D       0.444300
     56 H2A         -8.0740    -2.6260     2.5670 h5         1 A3D       0.027100
     57 H51N         3.8850     2.0710     1.1420 h1         1 A3D       0.019700
     58 H52N         3.0020     2.7190     2.5230 h1         1 A3D       0.019700
     59 H4D          2.6680     0.4570     3.4310 h1         1 A3D       0.127700
     60 H3D          5.0500     1.8340     3.5890 h1         1 A3D       0.073700
     61 HO3N         5.7600    -0.1380     4.7710 ho         1 A3D       0.413000
     62 H2D          5.8460     0.9800     1.4820 h1         1 A3D       0.074700
     63 HO2N         7.6150     0.4480     2.6580 ho         1 A3D       0.427000
     64 H1D          5.0730    -1.8530     2.3040 h2         1 A3D       0.102700
     65 H2N          6.5950    -2.6150     0.9740 h4         1 A3D       0.202000
     66 H81N         8.4720    -2.8480    -3.2600 hc         1 A3D       0.071700
     67 H82N         8.8980    -4.4880    -2.7440 hc         1 A3D       0.071700
     68 H83N         7.2660    -4.1220    -3.3320 hc         1 A3D       0.071700
     69 H4N          6.2660    -1.9380    -3.2540 ha         1 A3D       0.162000
     70 H5N          4.4710    -0.2970    -2.7630 ha         1 A3D       0.227000
     71 H6N          3.8080     0.1340    -0.4550 h4         1 A3D       0.301000
@<TRIPOS>BOND
     1     1     2 1   
     2     1     3 1   
     3     1     4 1   
     4     1    23 1   
     5     4     5 1   
     6     5     6 1   
     7     5    45 1   
     8     5    46 1   
     9     6     7 1   
    10     6     8 1   
    11     6    47 1   
    12     7    12 1   
    13     8     9 1   
    14     8    10 1   
    15     8    48 1   
    16     9    49 1   
    17    10    11 1   
    18    10    12 1   
    19    10    50 1   
    20    11    51 1   
    21    12    13 1   
    22    12    52 1   
    23    13    14 1   
    24    13    22 1   
    25    14    15 2   
    26    14    53 1   
    27    15    16 1   
    28    16    17 ar  
    29    16    22 ar  
    30    17    18 1   
    31    17    19 ar  
    32    18    54 1   
    33    18    55 1   
    34    19    20 ar  
    35    20    21 ar  
    36    20    56 1   
    37    21    22 ar  
    38    23    24 1   
    39    24    25 1   
    40    24    26 1   
    41    24    27 1   
    42    27    28 1   
    43    28    29 1   
    44    28    57 1   
    45    28    58 1   
    46    29    30 1   
    47    29    31 1   
    48    29    59 1   
    49    30    35 1   
    50    31    32 1   
    51    31    33 1   
    52    31    60 1   
    53    32    61 1   
    54    33    34 1   
    55    33    35 1   
    56    33    62 1   
    57    34    63 1   
    58    35    36 1   
    59    35    64 1   
    60    36    37 1   
    61    36    44 2   
    62    37    38 ar  
    63    37    65 1   
    64    38    39 1   
    65    38    42 ar  
    66    39    40 2   
    67    39    41 1   
    68    41    66 1   
    69    41    67 1   
    70    41    68 1   
    71    42    43 ar  
    72    42    69 1   
    73    43    44 ar  
    74    43    70 1   
    75    44    71 1   
@<TRIPOS>SUBSTRUCTURE
     1 A3D         1 TEMP              0 ****  ****    0 ROOT
