@<TRIPOS>MOLECULE
A3D
   71    75     1     0     0
SMALL
No Charge or Current Charge


@<TRIPOS>ATOM
      1 PA          -0.8240     0.5630    -3.4480 p5         1 A3D       1.455800
      2 O1A          0.4450     0.4790    -4.2290 o          1 A3D      -0.841000
      3 O2A         -1.7470     1.6140    -3.9680 o          1 A3D      -0.841000
      4 O5B         -1.5570    -0.8730    -3.5180 os         1 A3D      -0.572400
      5 C5B         -2.9100    -1.0170    -3.0600 c3         1 A3D       0.211600
      6 C4B         -2.9780    -2.1860    -2.0300 c5         1 A3D       0.157300
      7 O4B         -2.5010    -1.7480    -0.7310 os         1 A3D      -0.416000
      8 C3B         -4.4300    -2.6910    -1.7430 c5         1 A3D       0.099300
      9 O3B         -4.4700    -3.9700    -1.0940 oh         1 A3D      -0.714000
     10 C2B         -4.9130    -1.5740    -0.7760 c5         1 A3D       0.071300
     11 O2B         -6.0730    -1.9880    -0.0250 oh         1 A3D      -0.703000
     12 C1B         -3.6210    -1.3720     0.1010 c5         1 A3D       0.322300
     13 N9A         -3.3700    -0.0550     0.6910 na         1 A3D      -0.295300
     14 C8A         -3.8440     1.1760     0.2180 cc         1 A3D       0.455700
     15 N7A         -3.5070     2.1840     1.0490 nd         1 A3D      -0.565100
     16 C5A         -2.7710     1.5440     2.0500 ca         1 A3D      -0.085600
     17 C6A         -2.1440     2.0880     3.1910 ca         1 A3D       0.436900
     18 N6A         -2.1880     3.4130     3.4960 nv         1 A3D      -1.077900
     19 N1A         -1.4810     1.3070     4.0580 nb         1 A3D      -0.322000
     20 C2A         -1.4510    -0.0160     3.7640 ca         1 A3D       0.152900
     21 N3A         -2.0220    -0.6220     2.6950 nb         1 A3D      -0.213000
     22 C4A         -2.6800     0.1910     1.8450 ca         1 A3D       0.111500
     23 O3          -0.6100     0.5940    -1.8880 os         1 A3D      -0.683800
     24 PN           0.2210     1.8410    -1.4040 p5         1 A3D       1.473800
     25 O1N          1.6450     1.8600    -1.8470 o          1 A3D      -0.851500
     26 O2N         -0.4610     3.1430    -1.6640 o          1 A3D      -0.851500
     27 O5D          0.1530     1.5290     0.1790 os         1 A3D      -0.555400
     28 C5D          1.0390     0.6040     0.8330 c3         1 A3D       0.214600
     29 C4D          0.7610    -0.8750     0.4060 c5         1 A3D       0.150300
     30 O4D          1.6260    -1.2690    -0.6920 os         1 A3D      -0.398000
     31 C3D          1.1120    -1.9200     1.5110 c5         1 A3D       0.112300
     32 O3D          0.5900    -3.2280     1.2440 oh         1 A3D      -0.701000
     33 C2D          2.6620    -1.9310     1.3880 c5         1 A3D       0.067300
     34 O2D          3.2210    -3.1250     1.9740 oh         1 A3D      -0.719000
     35 C1D          2.8600    -1.8370    -0.1720 c5         1 A3D       0.282300
     36 N1N          4.0400    -1.0800    -0.6400 na         1 A3D       0.028300
     37 C2N          5.2940    -1.2140    -0.0180 ca         1 A3D      -0.036000
     38 C3N          6.4230    -0.4360    -0.3710 ca         1 A3D      -0.224600
     39 C7N          7.7210    -0.6190     0.3890 c          1 A3D       0.595700
     40 O7N          7.8020    -1.4430     1.2920 o          1 A3D      -0.507100
     41 C8N          8.9400     0.2300     0.0310 c3         1 A3D      -0.195100
     42 C4N          6.3030     0.4840    -1.4340 ca         1 A3D      -0.001000
     43 C5N          5.0870     0.5810    -2.1240 ca         1 A3D      -0.116000
     44 C6N          3.9900    -0.2110    -1.7430 ca         1 A3D       0.062700
     45 H51A        -3.2860    -0.0950    -2.5980 h1         1 A3D       0.017200
     46 H52A        -3.5590    -1.2570    -3.9110 h1         1 A3D       0.017200
     47 H4B         -2.3420    -3.0020    -2.3960 h1         1 A3D       0.091700
     48 H3B         -5.0340    -2.7160    -2.6620 h1         1 A3D       0.051700
     49 HO3A        -5.1810    -3.8730    -0.4130 ho         1 A3D       0.508000
     50 H2B         -5.1420    -0.6650    -1.3490 h1         1 A3D       0.071700
     51 HO2A        -6.8760    -1.7240    -0.5370 ho         1 A3D       0.503000
     52 H1B         -3.6650    -2.0690     0.9480 h2         1 A3D       0.099700
     53 H8A         -4.4180     1.2750    -0.6960 h5         1 A3D       0.147800
     54 H61A        -2.8580     3.9770     2.9800 hn         1 A3D       0.499500
     55 H62A        -1.9910     3.6940     4.4520 hn         1 A3D       0.499500
     56 H2A         -0.9140    -0.6580     4.4590 h5         1 A3D       0.027100
     57 H51N         2.0870     0.8610     0.6350 h1         1 A3D       0.019700
     58 H52N         0.8890     0.6850     1.9170 h1         1 A3D       0.019700
     59 H4D         -0.2900    -0.9630     0.1090 h1         1 A3D       0.127700
     60 H3D          0.7910    -1.5770     2.5050 h1         1 A3D       0.073700
     61 HO3N         1.3440    -3.8320     1.4560 ho         1 A3D       0.512000
     62 H2D          3.0850    -1.0350     1.8680 h1         1 A3D       0.074700
     63 HO2N         3.3820    -2.9490     2.9340 ho         1 A3D       0.526000
     64 H1D          2.9790    -2.8450    -0.5860 h2         1 A3D       0.102700
     65 H2N          5.3630    -1.9560     0.7800 h4         1 A3D       0.184000
     66 H81N         8.6650     1.2890     0.0810 hc         1 A3D       0.071700
     67 H82N         9.8060     0.0080     0.6660 hc         1 A3D       0.071700
     68 H83N         9.1750     0.0890    -1.0300 hc         1 A3D       0.071700
     69 H4N          7.1370     1.1080    -1.7490 ha         1 A3D       0.144000
     70 H5N          4.9910     1.2670    -2.9640 ha         1 A3D       0.209000
     71 H6N          3.0520    -0.1480    -2.2980 h4         1 A3D       0.283000
@<TRIPOS>BOND
     1     1     2 1   
     2     1     3 1   
     3     1     4 1   
     4     1    23 1   
     5     4     5 1   
     6     5     6 1   
     7     5    45 1   
     8     5    46 1   
     9     6     7 1   
    10     6     8 1   
    11     6    47 1   
    12     7    12 1   
    13     8     9 1   
    14     8    10 1   
    15     8    48 1   
    16     9    49 1   
    17    10    11 1   
    18    10    12 1   
    19    10    50 1   
    20    11    51 1   
    21    12    13 1   
    22    12    52 1   
    23    13    14 1   
    24    13    22 1   
    25    14    15 2   
    26    14    53 1   
    27    15    16 1   
    28    16    17 ar  
    29    16    22 ar  
    30    17    18 1   
    31    17    19 ar  
    32    18    54 1   
    33    18    55 1   
    34    19    20 ar  
    35    20    21 ar  
    36    20    56 1   
    37    21    22 ar  
    38    23    24 1   
    39    24    25 1   
    40    24    26 1   
    41    24    27 1   
    42    27    28 1   
    43    28    29 1   
    44    28    57 1   
    45    28    58 1   
    46    29    30 1   
    47    29    31 1   
    48    29    59 1   
    49    30    35 1   
    50    31    32 1   
    51    31    33 1   
    52    31    60 1   
    53    32    61 1   
    54    33    34 1   
    55    33    35 1   
    56    33    62 1   
    57    34    63 1   
    58    35    36 1   
    59    35    64 1   
    60    36    37 1   
    61    36    44 2   
    62    37    38 ar  
    63    37    65 1   
    64    38    39 1   
    65    38    42 ar  
    66    39    40 2   
    67    39    41 1   
    68    41    66 1   
    69    41    67 1   
    70    41    68 1   
    71    42    43 ar  
    72    42    69 1   
    73    43    44 ar  
    74    43    70 1   
    75    44    71 1   
@<TRIPOS>SUBSTRUCTURE
     1 A3D         1 TEMP              0 ****  ****    0 ROOT
