@<TRIPOS>MOLECULE
A3E
   54    57     1     0     0
SMALL
No Charge or Current Charge


@<TRIPOS>ATOM
      1 O           -7.0930     2.4650    -0.9660 os         1 A3E      -0.450000
      2 C1           4.9310     3.8480     1.0000 c3         1 A3E      -0.109600
      3 N1           5.1970     1.6000    -0.0640 na         1 A3E       0.133800
      4 C2           5.6090     3.0170    -0.1120 c3         1 A3E       0.089300
      5 N2           5.4410    -0.5420     0.1530 nc         1 A3E      -0.397000
      6 C3           5.3780     3.6340    -1.5100 c3         1 A3E      -0.109600
      7 N3           6.1010     0.5890     0.1750 nd         1 A3E      -0.196800
      8 C4           3.9310     1.0830    -0.2410 cd         1 A3E      -0.215000
      9 N4           2.3170    -3.4970    -0.6320 nb         1 A3E      -0.766000
     10 C5           4.1310    -0.2520    -0.0940 cc         1 A3E       0.288500
     11 N5           4.4240    -3.0950    -0.8800 nv         1 A3E      -1.063900
     12 C6           3.0350    -1.2180    -0.2090 ca         1 A3E      -0.242500
     13 N6          -5.5850     0.2680     0.2010 n3         1 A3E      -0.716600
     14 C7           1.7140    -0.8450     0.1090 ca         1 A3E      -0.014000
     15 C8           0.6800    -1.8100     0.0380 cp         1 A3E      -0.166000
     16 C9           1.0510    -3.1240    -0.3440 ca         1 A3E       0.416900
     17 C10          3.2490    -2.5610    -0.5580 ca         1 A3E       0.649900
     18 C11         -0.7410    -1.4640     0.3600 cp         1 A3E      -0.006000
     19 C12         -1.0560    -0.4950     1.3460 ca         1 A3E      -0.112500
     20 C13         -2.3900    -0.1710     1.6490 ca         1 A3E      -0.096500
     21 C14         -3.4470    -0.8080     0.9720 ca         1 A3E      -0.091300
     22 C15         -3.1520    -1.7720    -0.0090 ca         1 A3E      -0.096500
     23 C16         -1.8180    -2.0960    -0.3090 ca         1 A3E      -0.112500
     24 C17         -4.8980    -0.4590     1.2950 c3         1 A3E       0.215100
     25 C18         -7.0470     0.4510     0.4600 c6         1 A3E       0.126300
     26 C19         -7.7520     1.2020    -0.7090 c6         1 A3E       0.153600
     27 C20         -5.6920     2.3050    -1.2970 c6         1 A3E       0.153600
     28 C21         -4.9410     1.5770    -0.1420 c6         1 A3E       0.126300
     29 H1           3.8430     3.8760     0.8620 hc         1 A3E       0.052033
     30 H2           5.1410     3.4160     1.9860 hc         1 A3E       0.052033
     31 H3           5.3050     4.8790     0.9950 hc         1 A3E       0.052033
     32 H4           6.6900     3.0430     0.0780 h1         1 A3E       0.090700
     33 H5           5.7570     4.6620    -1.5460 hc         1 A3E       0.052033
     34 H6           5.9010     3.0520    -2.2780 hc         1 A3E       0.052033
     35 H7           4.3100     3.6530    -1.7590 hc         1 A3E       0.052033
     36 H8           3.0510     1.6750    -0.4530 h4         1 A3E       0.167000
     37 H9           5.2350    -2.5810    -0.5500 hn         1 A3E       0.503500
     38 H10          4.4630    -4.1030    -0.8050 hn         1 A3E       0.503500
     39 H12          1.4840     0.1750     0.4040 ha         1 A3E       0.109000
     40 H13          0.3040    -3.9140    -0.4020 h4         1 A3E       0.018100
     41 H14         -0.2610     0.0030     1.8940 ha         1 A3E       0.112500
     42 H15         -2.6010     0.5760     2.4110 ha         1 A3E       0.117500
     43 H16         -3.9610    -2.2660    -0.5430 ha         1 A3E       0.117500
     44 H17         -1.6220    -2.8350    -1.0820 ha         1 A3E       0.112500
     45 H18         -4.9300     0.1370     2.2180 h1         1 A3E       0.038700
     46 H19         -5.4300    -1.3960     1.5060 h1         1 A3E       0.038700
     47 H20         -7.5360    -0.5240     0.5990 h1         1 A3E       0.042200
     48 H21         -7.2010     1.0230     1.3880 h1         1 A3E       0.042200
     49 H22         -8.8040     1.3900    -0.4530 h1         1 A3E       0.050200
     50 H23         -7.7270     0.5860    -1.6200 h1         1 A3E       0.050200
     51 H24         -5.6030     1.7240    -2.2270 h1         1 A3E       0.050200
     52 H25         -5.2470     3.2950    -1.4680 h1         1 A3E       0.050200
     53 H26         -4.9260     2.2360     0.7380 h1         1 A3E       0.042200
     54 H27         -3.8960     1.4260    -0.4500 h1         1 A3E       0.042200
@<TRIPOS>BOND
     1     1    26 1   
     2     1    27 1   
     3     2     4 1   
     4     2    29 1   
     5     2    30 1   
     6     2    31 1   
     7     3     4 1   
     8     3     7 1   
     9     3     8 1   
    10     4     6 1   
    11     4    32 1   
    12     5     7 2   
    13     5    10 1   
    14     6    33 1   
    15     6    34 1   
    16     6    35 1   
    17     8    10 2   
    18     8    36 1   
    19     9    16 ar  
    20     9    17 ar  
    21    10    12 1   
    22    11    17 1   
    23    11    37 1   
    24    11    38 1   
    25    12    14 ar  
    26    12    17 ar  
    27    13    24 1   
    28    13    25 1   
    29    13    28 1   
    30    14    15 ar  
    31    14    39 1   
    32    15    16 ar  
    33    15    18 1   
    34    16    40 1   
    35    18    19 ar  
    36    18    23 ar  
    37    19    20 ar  
    38    19    41 1   
    39    20    21 ar  
    40    20    42 1   
    41    21    22 ar  
    42    21    24 1   
    43    22    23 ar  
    44    22    43 1   
    45    23    44 1   
    46    24    45 1   
    47    24    46 1   
    48    25    26 1   
    49    25    47 1   
    50    25    48 1   
    51    26    49 1   
    52    26    50 1   
    53    27    28 1   
    54    27    51 1   
    55    27    52 1   
    56    28    53 1   
    57    28    54 1   
@<TRIPOS>SUBSTRUCTURE
     1 A3E         1 TEMP              0 ****  ****    0 ROOT
