@<TRIPOS>MOLECULE
A3E
   54    57     1     0     0
SMALL
bcc


@<TRIPOS>ATOM
      1 O           -7.4450     1.7450    -1.3760 os         1 A3E      -0.403600
      2 C1           5.6010     3.4050     1.3740 c3         1 A3E      -0.109600
      3 N1           5.2980     1.5300    -0.1680 na         1 A3E       0.112400
      4 C2           5.8410     2.8820    -0.0340 c3         1 A3E       0.060000
      5 N2           5.3680    -0.5630    -0.3880 nc         1 A3E      -0.397000
      6 C3           5.2630     3.7920    -1.1050 c3         1 A3E      -0.109600
      7 N3           6.0990     0.4960    -0.3220 nd         1 A3E      -0.196800
      8 C4           4.0150     1.1460    -0.1320 cd         1 A3E      -0.247600
      9 N4           2.0950    -3.3960    -0.6380 nb         1 A3E      -0.766000
     10 C5           4.0620    -0.2250    -0.2750 cc         1 A3E       0.353800
     11 N5           4.3260    -3.0640    -0.9900 nv         1 A3E      -0.953500
     12 C6           2.9600    -1.1820    -0.2930 ca         1 A3E      -0.307800
     13 N6          -5.6230     0.2850     0.2370 n3         1 A3E      -0.716600
     14 C7           1.6790    -0.7640     0.0200 ca         1 A3E      -0.032000
     15 C8           0.5940    -1.6380     0.0040 cp         1 A3E      -0.231300
     16 C9           0.8860    -2.9550    -0.3360 ca         1 A3E       0.482200
     17 C10          3.1290    -2.5520    -0.6310 ca         1 A3E       0.715200
     18 C11         -0.7690    -1.2040     0.3480 cp         1 A3E      -0.006000
     19 C12         -0.9900    -0.2470     1.3380 ca         1 A3E      -0.130500
     20 C13         -2.2750     0.1670     1.6560 ca         1 A3E      -0.114500
     21 C14         -3.3830    -0.3690     1.0100 ca         1 A3E      -0.091300
     22 C15         -3.1670    -1.3250     0.0200 ca         1 A3E      -0.114500
     23 C16         -1.8840    -1.7330    -0.3080 ca         1 A3E      -0.130500
     24 C17         -4.7790     0.0490     1.3890 c3         1 A3E       0.215100
     25 C18         -7.0160     0.4340     0.6150 c6         1 A3E       0.126300
     26 C19         -7.8720     0.6330    -0.6210 c6         1 A3E       0.130400
     27 C20         -6.0910     1.6110    -1.7450 c6         1 A3E       0.130400
     28 C21         -5.1940     1.4360    -0.5350 c6         1 A3E       0.126300
     29 H1           4.5370     3.5430     1.5730 hc         1 A3E       0.052033
     30 H2           6.0090     2.7270     2.1220 hc         1 A3E       0.052033
     31 H3           6.0910     4.3710     1.4930 hc         1 A3E       0.052033
     32 H4           6.9130     2.7640    -0.1990 h1         1 A3E       0.090700
     33 H5           5.7260     4.7760    -1.0330 hc         1 A3E       0.052033
     34 H6           5.4530     3.4020    -2.1040 hc         1 A3E       0.052033
     35 H7           4.1860     3.9240    -0.9820 hc         1 A3E       0.052033
     36 H8           3.1990     1.8410    -0.0240 h4         1 A3E       0.185000
     37 H9           5.1650    -2.5340    -0.8110 hn         1 A3E       0.448300
     38 H10          4.4030    -4.0650    -1.0470 hn         1 A3E       0.448300
     39 H12          1.5130     0.2770     0.2750 ha         1 A3E       0.127000
     40 H13          0.0990    -3.7020    -0.3420 h4         1 A3E       0.018100
     41 H14         -0.1520     0.1730     1.8810 ha         1 A3E       0.130500
     42 H15         -2.4140     0.9170     2.4260 ha         1 A3E       0.135500
     43 H16         -4.0120    -1.7400    -0.5140 ha         1 A3E       0.135500
     44 H17         -1.7500    -2.4600    -1.1000 ha         1 A3E       0.130500
     45 H18         -4.7300     0.9280     2.0530 h1         1 A3E       0.038700
     46 H19         -5.2400    -0.7500     1.9790 h1         1 A3E       0.038700
     47 H20         -7.3490    -0.4690     1.1330 h1         1 A3E       0.042200
     48 H21         -7.1640     1.2800     1.3090 h1         1 A3E       0.042200
     49 H22         -8.9090     0.8120    -0.3320 h1         1 A3E       0.050200
     50 H23         -7.8440    -0.2810    -1.2310 h1         1 A3E       0.050200
     51 H24         -5.9590     0.7530    -2.4190 h1         1 A3E       0.050200
     52 H25         -5.8110     2.5130    -2.2910 h1         1 A3E       0.050200
     53 H26         -5.2020     2.3580     0.0730 h1         1 A3E       0.042200
     54 H27         -4.1680     1.2880    -0.8800 h1         1 A3E       0.042200
@<TRIPOS>BOND
     1     1    26 1   
     2     1    27 1   
     3     2     4 1   
     4     2    29 1   
     5     2    30 1   
     6     2    31 1   
     7     3     4 1   
     8     3     7 1   
     9     3     8 1   
    10     4     6 1   
    11     4    32 1   
    12     5     7 2   
    13     5    10 1   
    14     6    33 1   
    15     6    34 1   
    16     6    35 1   
    17     8    10 2   
    18     8    36 1   
    19     9    16 ar  
    20     9    17 ar  
    21    10    12 1   
    22    11    17 1   
    23    11    37 1   
    24    11    38 1   
    25    12    14 ar  
    26    12    17 ar  
    27    13    24 1   
    28    13    25 1   
    29    13    28 1   
    30    14    15 ar  
    31    14    39 1   
    32    15    16 ar  
    33    15    18 1   
    34    16    40 1   
    35    18    19 ar  
    36    18    23 ar  
    37    19    20 ar  
    38    19    41 1   
    39    20    21 ar  
    40    20    42 1   
    41    21    22 ar  
    42    21    24 1   
    43    22    23 ar  
    44    22    43 1   
    45    23    44 1   
    46    24    45 1   
    47    24    46 1   
    48    25    26 1   
    49    25    47 1   
    50    25    48 1   
    51    26    49 1   
    52    26    50 1   
    53    27    28 1   
    54    27    51 1   
    55    27    52 1   
    56    28    53 1   
    57    28    54 1   
@<TRIPOS>SUBSTRUCTURE
     1 A3E         1 TEMP              0 ****  ****    0 ROOT
