@<TRIPOS>MOLECULE
A3F
   46    48     1     0     0
SMALL
No Charge or Current Charge


@<TRIPOS>ATOM
      1 CAA          4.4160     2.6070    -1.4690 c3         1 A3F       0.144900
      2 CAB          2.0930    -3.6440     1.7760 c3         1 A3F       0.144900
      3 CAC          6.3310    -0.8320    -0.4410 c3         1 A3F       0.148900
      4 CAF         -4.8030    -1.8150    -1.8420 ca         1 A3F      -0.073000
      5 CAG         -6.0250    -1.6540    -1.1720 ca         1 A3F      -0.145000
      6 CAH         -3.6790    -1.0750    -1.4360 ca         1 A3F      -0.143000
      7 CAI         -2.6800     1.9430     0.5920 ca         1 A3F       0.403900
      8 CAJ         -5.0000    -0.0150     0.3040 ca         1 A3F      -0.204000
      9 CAK          2.3030     1.0500    -0.2740 ca         1 A3F      -0.224500
     10 CAL          1.5250    -0.9810     0.7850 ca         1 A3F      -0.224500
     11 CAM         -1.2460     0.0990    -0.0150 ca         1 A3F      -0.013000
     12 NAN         -1.6360     2.7000     0.9970 nb         1 A3F      -0.752000
     13 OAO          4.6210     1.2810    -0.9490 os         1 A3F      -0.323600
     14 CAR         -6.1230    -0.7560    -0.1000 ca         1 A3F       0.141100
     15 CAS         -0.4280     2.1670     0.8850 ca         1 A3F       0.617900
     16 CAT         -3.7540    -0.1600    -0.3550 cp         1 A3F       0.026000
     17 CAU         -2.5560     0.6280     0.0750 cp         1 A3F      -0.150000
     18 CAV          1.2490     0.3150     0.3080 cp         1 A3F       0.038000
     19 CAW          3.6130     0.5260    -0.3710 ca         1 A3F       0.157100
     20 CAX          2.8210    -1.5300     0.7030 ca         1 A3F       0.157100
     21 CAY         -0.1360     0.8720     0.3920 cp         1 A3F      -0.162000
     22 CAZ          3.8790    -0.7860     0.1280 ca         1 A3F       0.025100
     23 HAA          5.3560     3.0050    -1.8720 h1         1 A3F       0.042867
     24 HAAA         3.6760     2.5990    -2.2800 h1         1 A3F       0.042867
     25 HAAB         4.0710     3.2870    -0.6800 h1         1 A3F       0.042867
     26 HAB          2.5320    -4.6030     2.0760 h1         1 A3F       0.042867
     27 HABA         1.6680    -3.1710     2.6700 h1         1 A3F       0.042867
     28 HABB         1.2820    -3.8500     1.0650 h1         1 A3F       0.042867
     29 HAC          7.1650    -1.5360    -0.3380 h1         1 A3F       0.033033
     30 HACA         6.2170    -0.6020    -1.5080 h1         1 A3F       0.033033
     31 HACB         6.5980     0.0840     0.1010 h1         1 A3F       0.033033
     32 HNAD         0.0780     3.7740     1.9260 hn         1 A3F       0.479000
     33 HNAA         1.3530     2.6380     1.6890 hn         1 A3F       0.479000
     34 HOAE        -7.1920     0.0540     1.2640 ho         1 A3F       0.464000
     35 HAF         -4.7260    -2.5090    -2.6760 ha         1 A3F       0.115000
     36 HAG         -6.8960    -2.2260    -1.4830 ha         1 A3F       0.129000
     37 HAH         -2.7460    -1.2030    -1.9780 ha         1 A3F       0.117000
     38 HAI         -3.6600     2.4110     0.6780 h4         1 A3F       0.019100
     39 HAJ         -5.0880     0.6670     1.1450 ha         1 A3F       0.112000
     40 HAK          2.0710     2.0350    -0.6630 ha         1 A3F       0.128000
     41 HAL          0.7110    -1.5440     1.2300 ha         1 A3F       0.128000
     42 HAM         -1.0870    -0.9070    -0.3940 ha         1 A3F       0.124000
     43 NAD          0.4730     3.0260     1.3710 nv         1 A3F      -1.055900
     44 OAP          3.0960    -2.8030     1.1780 os         1 A3F      -0.323600
     45 OAQ          5.1270    -1.4130     0.0920 os         1 A3F      -0.327100
     46 OAE         -7.3110    -0.6070     0.5490 oh         1 A3F      -0.535100
@<TRIPOS>BOND
     1     1    13 1   
     2     1    23 1   
     3     1    24 1   
     4     1    25 1   
     5     2    26 1   
     6     2    27 1   
     7     2    28 1   
     8     2    44 1   
     9     3    29 1   
    10     3    30 1   
    11     3    31 1   
    12     3    45 1   
    13     4     5 ar  
    14     4     6 ar  
    15     4    35 1   
    16     5    14 ar  
    17     5    36 1   
    18     6    16 ar  
    19     6    37 1   
    20     7    12 ar  
    21     7    17 ar  
    22     7    38 1   
    23     8    14 ar  
    24     8    16 ar  
    25     8    39 1   
    26     9    18 ar  
    27     9    19 ar  
    28     9    40 1   
    29    10    18 ar  
    30    10    20 ar  
    31    10    41 1   
    32    11    17 ar  
    33    11    21 ar  
    34    11    42 1   
    35    12    15 ar  
    36    13    19 1   
    37    14    46 1   
    38    15    21 ar  
    39    15    43 1   
    40    16    17 1   
    41    18    21 1   
    42    19    22 ar  
    43    20    22 ar  
    44    20    44 1   
    45    22    45 1   
    46    32    43 1   
    47    33    43 1   
    48    34    46 1   
@<TRIPOS>SUBSTRUCTURE
     1 A3F         1 TEMP              0 ****  ****    0 ROOT
