@<TRIPOS>MOLECULE
A3F
   46    48     1     0     0
SMALL
bcc


@<TRIPOS>ATOM
      1 CAA          4.1920     2.4480    -1.9710 c3         1 A3F       0.121700
      2 CAB          2.3170    -3.4420     1.6260 c3         1 A3F       0.121700
      3 CAC          5.9860    -0.9490     0.4720 c3         1 A3F       0.125700
      4 CAF         -4.7690    -1.6880    -1.8060 ca         1 A3F      -0.091000
      5 CAG         -5.9600    -1.5870    -1.1050 ca         1 A3F      -0.163000
      6 CAH         -3.6440    -0.9760    -1.4150 ca         1 A3F      -0.161000
      7 CAI         -2.6210     1.8890     0.6900 ca         1 A3F       0.469200
      8 CAJ         -4.8950    -0.0480     0.4160 ca         1 A3F      -0.222000
      9 CAK          2.2000     1.0730    -0.5520 ca         1 A3F      -0.242500
     10 CAL          1.5630    -0.9220     0.6510 ca         1 A3F      -0.242500
     11 CAM         -1.2150     0.1380    -0.0340 ca         1 A3F      -0.031000
     12 NAN         -1.5890     2.6200     1.0830 nb         1 A3F      -0.752000
     13 OAO          4.4470     1.1600    -1.4460 os         1 A3F      -0.300400
     14 CAR         -6.0210    -0.7570     0.0130 ca         1 A3F       0.141100
     15 CAS         -0.3540     2.1470     0.9290 ca         1 A3F       0.683200
     16 CAT         -3.6970    -0.1450    -0.2950 cp         1 A3F       0.026000
     17 CAU         -2.5150     0.6240     0.1290 cp         1 A3F      -0.215300
     18 CAV          1.2500     0.3410     0.1560 cp         1 A3F       0.038000
     19 CAW          3.4680     0.5390    -0.7680 ca         1 A3F       0.157100
     20 CAX          2.8310    -1.4580     0.4360 ca         1 A3F       0.157100
     21 CAY         -0.1140     0.8790     0.3460 cp         1 A3F      -0.227300
     22 CAZ          3.7850    -0.7320    -0.2790 ca         1 A3F       0.025100
     23 HAA          5.0990     2.7560    -2.4850 h1         1 A3F       0.042867
     24 HAAA         3.3660     2.4420    -2.6870 h1         1 A3F       0.042867
     25 HAAB         3.9710     3.1730    -1.1830 h1         1 A3F       0.042867
     26 HAB          2.8380    -4.3600     1.8850 h1         1 A3F       0.042867
     27 HABA         2.0140    -2.9370     2.5460 h1         1 A3F       0.042867
     28 HABB         1.4230    -3.6960     1.0510 h1         1 A3F       0.042867
     29 HAC          6.9140    -1.4320     0.1720 h1         1 A3F       0.033033
     30 HACA         6.1580     0.1280     0.5390 h1         1 A3F       0.033033
     31 HACB         5.7000    -1.3220     1.4590 h1         1 A3F       0.033033
     32 HNAD         0.4090     3.7130     1.9480 hn         1 A3F       0.423800
     33 HNAA         1.5590     2.5400     1.5290 hn         1 A3F       0.423800
     34 HOAE        -7.1190    -0.0840     1.4260 ho         1 A3F       0.425000
     35 HAF         -4.7210    -2.3260    -2.6780 ha         1 A3F       0.133000
     36 HAG         -6.8340    -2.1440    -1.4150 ha         1 A3F       0.147000
     37 HAH         -2.7330    -1.0520    -1.9940 ha         1 A3F       0.135000
     38 HAI         -3.5950     2.3500     0.8200 h4         1 A3F       0.019100
     39 HAJ         -4.9470     0.5720     1.3050 ha         1 A3F       0.130000
     40 HAK          1.9350     2.0430    -0.9500 ha         1 A3F       0.146000
     41 HAL          0.8160    -1.4660     1.2130 ha         1 A3F       0.146000
     42 HAM         -1.0530    -0.8420    -0.4660 ha         1 A3F       0.142000
     43 NAD          0.6620     2.9540     1.3370 nv         1 A3F      -0.945500
     44 OAP          3.2280    -2.6640     0.8740 os         1 A3F      -0.300400
     45 OAQ          5.0110    -1.2670    -0.5130 os         1 A3F      -0.303900
     46 OAE         -7.1930    -0.6840     0.6760 oh         1 A3F      -0.496100
@<TRIPOS>BOND
     1     1    13 1   
     2     1    23 1   
     3     1    24 1   
     4     1    25 1   
     5     2    26 1   
     6     2    27 1   
     7     2    28 1   
     8     2    44 1   
     9     3    29 1   
    10     3    30 1   
    11     3    31 1   
    12     3    45 1   
    13     4     5 ar  
    14     4     6 ar  
    15     4    35 1   
    16     5    14 ar  
    17     5    36 1   
    18     6    16 ar  
    19     6    37 1   
    20     7    12 ar  
    21     7    17 ar  
    22     7    38 1   
    23     8    14 ar  
    24     8    16 ar  
    25     8    39 1   
    26     9    18 ar  
    27     9    19 ar  
    28     9    40 1   
    29    10    18 ar  
    30    10    20 ar  
    31    10    41 1   
    32    11    17 ar  
    33    11    21 ar  
    34    11    42 1   
    35    12    15 ar  
    36    13    19 1   
    37    14    46 1   
    38    15    21 ar  
    39    15    43 1   
    40    16    17 1   
    41    18    21 1   
    42    19    22 ar  
    43    20    22 ar  
    44    20    44 1   
    45    22    45 1   
    46    32    43 1   
    47    33    43 1   
    48    34    46 1   
@<TRIPOS>SUBSTRUCTURE
     1 A3F         1 TEMP              0 ****  ****    0 ROOT
