@<TRIPOS>MOLECULE
A3G
   40    42     1     0     0
SMALL
bcc


@<TRIPOS>ATOM
      1 C           -4.2530     0.9180     0.0940 c          1 A3G       0.665100
      2 N           -6.3840     2.0150     0.5710 n8         1 A3G      -0.867800
      3 O           -4.8370    -0.0150    -0.4340 o          1 A3G      -0.594100
      4 N1           4.6570     1.2290    -0.6030 nb         1 A3G      -0.830000
      5 C2           3.5270     1.9270    -0.6060 ca         1 A3G       0.719900
      6 N3           2.3160     1.5200    -0.2600 nb         1 A3G      -0.794000
      7 C4           2.3180     0.2410     0.1270 ca         1 A3G       0.438800
      8 C5           3.4060    -0.6140     0.1620 ca         1 A3G      -0.223200
      9 C6           4.6400    -0.0560    -0.2230 ca         1 A3G       0.785200
     10 N6           5.7760    -0.7520    -0.2390 nv         1 A3G      -0.947500
     11 N7           3.0220    -1.8610     0.5790 nc         1 A3G      -0.561100
     12 C8           1.7410    -1.7560     0.7910 cd         1 A3G       0.426700
     13 N8          -2.9120     1.0440     0.0650 ns         1 A3G      -0.569900
     14 N9           1.2580    -0.5030     0.5350 na         1 A3G      -0.277000
     15 CA          -4.9730     1.9950     0.8850 c3         1 A3G       0.073800
     16 C1          -0.0920     0.0270     0.6930 c5         1 A3G       0.218800
     17 C7          -0.6220     0.5980    -0.6440 c5         1 A3G       0.103100
     18 O2          -0.5140     1.9820    -0.7440 oh         1 A3G      -0.599800
     19 C3          -2.0730     0.1130    -0.6490 c5         1 A3G       0.097700
     20 C9          -1.9350    -1.2250     0.0840 c5         1 A3G       0.119100
     21 O4          -0.9540    -0.9780     1.0950 os         1 A3G      -0.377600
     22 C10         -1.5220    -2.3560    -0.8400 c3         1 A3G       0.117400
     23 O5          -1.2940    -3.5020    -0.0600 oh         1 A3G      -0.586800
     24 HN          -6.8130     1.1470     0.8650 hn         1 A3G       0.349800
     25 HNA         -6.8270     2.7440     1.1150 hn         1 A3G       0.349800
     26 HN6          6.6430    -0.2960    -0.4640 hn         1 A3G       0.453300
     27 HN6A         5.8100    -1.6950     0.1070 hn         1 A3G       0.453300
     28 H8           1.0960    -2.5530     1.1270 h5         1 A3G       0.089800
     29 HN8         -2.4950     1.8960     0.4070 hn         1 A3G       0.336500
     30 HA          -4.7380     1.8200     1.9450 h1         1 A3G       0.045700
     31 HAA         -4.5390     2.9680     0.6390 h1         1 A3G       0.045700
     32 H1          -0.0460     0.8120     1.4560 h2         1 A3G       0.096700
     33 H2          -0.1020     0.1000    -1.4730 h1         1 A3G       0.059700
     34 HO2          0.4360     2.1900    -0.6760 ho         1 A3G       0.460000
     35 H3          -2.4390    -0.0260    -1.6700 h1         1 A3G       0.090700
     36 H4          -2.8550    -1.5070     0.5980 h1         1 A3G       0.115700
     37 H5          -2.3370    -2.5040    -1.5620 h1         1 A3G       0.030700
     38 H5'A        -0.6340    -2.0790    -1.4220 h1         1 A3G       0.030700
     39 HO5         -0.8920    -4.1720    -0.6200 ho         1 A3G       0.409000
     40 H6           3.6100     2.9560    -0.9360 h5         1 A3G       0.047100
@<TRIPOS>BOND
     1     1     3 2   
     2     1    13 1   
     3     1    15 1   
     4     2    15 1   
     5     2    24 1   
     6     2    25 1   
     7     4     5 ar  
     8     4     9 ar  
     9     5     6 ar  
    10     5    40 1   
    11     6     7 ar  
    12     7     8 ar  
    13     7    14 1   
    14     8     9 ar  
    15     8    11 1   
    16     9    10 1   
    17    10    26 1   
    18    10    27 1   
    19    11    12 2   
    20    12    14 1   
    21    12    28 1   
    22    13    19 1   
    23    13    29 1   
    24    14    16 1   
    25    15    30 1   
    26    15    31 1   
    27    16    17 1   
    28    16    21 1   
    29    16    32 1   
    30    17    18 1   
    31    17    19 1   
    32    17    33 1   
    33    18    34 1   
    34    19    20 1   
    35    19    35 1   
    36    20    21 1   
    37    20    22 1   
    38    20    36 1   
    39    22    23 1   
    40    22    37 1   
    41    22    38 1   
    42    23    39 1   
@<TRIPOS>SUBSTRUCTURE
     1 A3G         1 TEMP              0 ****  ****    0 ROOT
