@<TRIPOS>MOLECULE
A3G
   40    42     1     0     0
SMALL
No Charge or Current Charge


@<TRIPOS>ATOM
      1 C           -4.3610     0.8110     0.1050 c          1 A3G       0.598100
      2 N           -6.6840     1.8970     0.6880 n8         1 A3G      -0.978200
      3 O           -4.8550    -0.1140    -0.5320 o          1 A3G      -0.594100
      4 N1           4.9110     0.8410    -0.9010 nb         1 A3G      -0.304000
      5 C2           3.8480     1.6720    -1.0080 ca         1 A3G       0.193900
      6 N3           2.5860     1.4300    -0.5780 nb         1 A3G      -0.268000
      7 C4           2.3820     0.2370     0.0150 ca         1 A3G       0.110500
      8 C5           3.3930    -0.6770     0.1740 ca         1 A3G      -0.092600
      9 C6           4.6760    -0.3390    -0.3090 ca         1 A3G       0.456900
     10 N6           5.7450    -1.1730    -0.1950 nv         1 A3G      -1.057900
     11 N7           2.9700    -1.8310     0.8230 nc         1 A3G      -0.561100
     12 C8           1.6660    -1.5670     1.0410 cd         1 A3G       0.426700
     13 N8          -3.0020     1.0630     0.1120 ns         1 A3G      -0.502900
     14 N9           1.2480    -0.3130     0.5550 na         1 A3G      -0.306300
     15 CA          -5.2100     1.7980     0.9790 c3         1 A3G       0.073800
     16 C1          -0.0850     0.2810     0.6680 c5         1 A3G       0.271300
     17 C7          -0.6890     0.8950    -0.6580 c5         1 A3G       0.126300
     18 O2          -0.7250     2.3400    -0.6490 oh         1 A3G      -0.722000
     19 C3          -2.1120     0.2320    -0.7310 c5         1 A3G       0.097700
     20 C9          -1.8770    -1.1110     0.0250 c5         1 A3G       0.142300
     21 O4          -1.0330    -0.7090     1.1340 os         1 A3G      -0.424000
     22 C10         -1.1900    -2.2070    -0.8490 c3         1 A3G       0.140600
     23 O5          -1.0740    -3.4490    -0.1330 oh         1 A3G      -0.709000
     24 HN          -7.1150     0.9700     0.8030 hn         1 A3G       0.405000
     25 HNA         -7.1410     2.4710     1.4100 hn         1 A3G       0.405000
     26 HN6          6.6740    -0.7690    -0.2780 hn         1 A3G       0.508500
     27 HN6A         5.6460    -1.9620     0.4390 hn         1 A3G       0.508500
     28 H8           0.9720    -2.2320     1.5430 h5         1 A3G       0.089800
     29 HN8         -2.6750     1.8800     0.6150 hn         1 A3G       0.336500
     30 HA          -5.0760     1.4920     2.0260 h1         1 A3G       0.045700
     31 HAA         -4.7710     2.7990     0.8720 h1         1 A3G       0.045700
     32 H1           0.0110     1.0630     1.4330 h2         1 A3G       0.096700
     33 H2          -0.0970     0.5470    -1.5170 h1         1 A3G       0.059700
     34 HO2          0.2030     2.6550    -0.7780 ho         1 A3G       0.559000
     35 H3          -2.4770     0.1010    -1.7600 h1         1 A3G       0.090700
     36 H4          -2.8140    -1.5320     0.4140 h1         1 A3G       0.115700
     37 H5          -1.8020    -2.3550    -1.7490 h1         1 A3G       0.030700
     38 H5'A        -0.2030    -1.8620    -1.1840 h1         1 A3G       0.030700
     39 HO5         -0.7130    -4.1180    -0.7620 ho         1 A3G       0.508000
     40 H6           4.0250     2.6330    -1.4880 h5         1 A3G       0.047100
@<TRIPOS>BOND
     1     1     3 2   
     2     1    13 1   
     3     1    15 1   
     4     2    15 1   
     5     2    24 1   
     6     2    25 1   
     7     4     5 ar  
     8     4     9 ar  
     9     5     6 ar  
    10     5    40 1   
    11     6     7 ar  
    12     7     8 ar  
    13     7    14 1   
    14     8     9 ar  
    15     8    11 1   
    16     9    10 1   
    17    10    26 1   
    18    10    27 1   
    19    11    12 2   
    20    12    14 1   
    21    12    28 1   
    22    13    19 1   
    23    13    29 1   
    24    14    16 1   
    25    15    30 1   
    26    15    31 1   
    27    16    17 1   
    28    16    21 1   
    29    16    32 1   
    30    17    18 1   
    31    17    19 1   
    32    17    33 1   
    33    18    34 1   
    34    19    20 1   
    35    19    35 1   
    36    20    21 1   
    37    20    22 1   
    38    20    36 1   
    39    22    23 1   
    40    22    37 1   
    41    22    38 1   
    42    23    39 1   
@<TRIPOS>SUBSTRUCTURE
     1 A3G         1 TEMP              0 ****  ****    0 ROOT
