@<TRIPOS>MOLECULE
A3H
   41    44     1     0     0
SMALL
No Charge or Current Charge


@<TRIPOS>ATOM
      1 N           -1.4210     1.2440     0.1360 nb         1 A3H      -0.753000
      2 C           -0.0670    -0.7260    -0.1980 ca         1 A3H      -0.234000
      3 C1          -1.3010    -0.0730    -0.0640 ca         1 A3H       0.653900
      4 N1          -0.1360     3.3000     0.4340 na         1 A3H      -0.312400
      5 C2           1.1340     0.0120    -0.1270 cp         1 A3H       0.094000
      6 C3           1.2220     3.6690     0.4940 cc         1 A3H      -0.121100
      7 N3          -2.4680    -0.7930    -0.1440 nu         1 A3H      -0.894800
      8 C4           1.9200     2.4870     0.2960 cd         1 A3H      -0.033900
      9 N4          -5.8440    -0.8940    -0.0580 na         1 A3H       0.134800
     10 C5           0.9740     1.3960     0.1040 ca         1 A3H      -0.144800
     11 N5          -4.6150    -1.5140    -0.2030 nc         1 A3H      -0.593800
     12 C6          -0.2840     1.9510     0.2170 ca         1 A3H       0.407500
     13 C7           3.3420     2.4320     0.3440 ch         1 A3H       0.324700
     14 C8           2.4520    -0.6620    -0.2960 cp         1 A3H      -0.052000
     15 C9           3.3300    -0.2950    -1.3430 ca         1 A3H      -0.087000
     16 C10          4.5630    -0.9470    -1.5100 ca         1 A3H      -0.104000
     17 C11          4.9320    -1.9850    -0.6390 ca         1 A3H      -0.100000
     18 C12          4.0680    -2.3810     0.3990 ca         1 A3H      -0.078300
     19 C13          2.8350    -1.7200     0.5620 ca         1 A3H      -0.092000
     20 C14         -3.7850    -0.5170    -0.0570 cd         1 A3H       0.508900
     21 C15         -4.4130     0.7180     0.1760 cd         1 A3H      -0.224000
     22 C16         -5.7580     0.4780     0.1760 cc         1 A3H      -0.161000
     23 C18          4.4640    -3.5070     1.3420 c3         1 A3H      -0.046800
     24 H1          -0.0330    -1.7970    -0.3690 ha         1 A3H       0.128000
     25 H2          -0.9220     3.9290     0.5440 hn         1 A3H       0.364000
     26 H3           1.5660     4.6840     0.6780 h4         1 A3H       0.226000
     27 H4          -2.3180    -1.7790    -0.3100 hn         1 A3H       0.513000
     28 H5           3.0480     0.5010    -2.0290 ha         1 A3H       0.121000
     29 H6           5.2300    -0.6500    -2.3160 ha         1 A3H       0.117000
     30 H7           5.8890    -2.4850    -0.7730 ha         1 A3H       0.112000
     31 H8           2.1660    -2.0220     1.3640 ha         1 A3H       0.114000
     32 H9          -3.9350     1.6760     0.3280 ha         1 A3H       0.165000
     33 H10         -6.6180     1.1230     0.3150 h4         1 A3H       0.151000
     34 H11         -7.1370    -2.1580    -1.1420 h1         1 A3H       0.054367
     35 H12         -7.0860    -2.4550     0.6230 h1         1 A3H       0.054367
     36 H13         -7.9500    -1.0280    -0.0200 h1         1 A3H       0.054367
     37 H14          4.9760    -3.1120     2.2270 hc         1 A3H       0.042367
     38 H15          3.5860    -4.0680     1.6840 hc         1 A3H       0.042367
     39 H16          5.1390    -4.2190     0.8530 hc         1 A3H       0.042367
     40 C17         -7.0810    -1.6830    -0.1550 c3         1 A3H       0.078900
     41 N2           4.5090     2.4220     0.3960 n1         1 A3H      -0.471000
@<TRIPOS>BOND
     1     1     3 ar  
     2     1    12 ar  
     3     2     3 ar  
     4     2     5 ar  
     5     2    24 1   
     6     3     7 1   
     7     4     6 1   
     8     4    12 1   
     9     4    25 1   
    10     5    10 ar  
    11     5    14 1   
    12     6     8 2   
    13     6    26 1   
    14     7    20 1   
    15     7    27 1   
    16     8    10 1   
    17     8    13 1   
    18     9    11 1   
    19     9    22 1   
    20     9    40 1   
    21    10    12 ar  
    22    11    20 2   
    23    13    41 3   
    24    14    15 ar  
    25    14    19 ar  
    26    15    16 ar  
    27    15    28 1   
    28    16    17 ar  
    29    16    29 1   
    30    17    18 ar  
    31    17    30 1   
    32    18    19 ar  
    33    18    23 1   
    34    19    31 1   
    35    20    21 1   
    36    21    22 2   
    37    21    32 1   
    38    22    33 1   
    39    23    37 1   
    40    23    38 1   
    41    23    39 1   
    42    34    40 1   
    43    35    40 1   
    44    36    40 1   
@<TRIPOS>SUBSTRUCTURE
     1 A3H         1 TEMP              0 ****  ****    0 ROOT
