@<TRIPOS>MOLECULE
A3H
   41    44     1     0     0
SMALL
bcc


@<TRIPOS>ATOM
      1 N           -1.4190     1.1850     0.1330 nb         1 A3H      -0.753000
      2 C           -0.0160    -0.7510    -0.1440 ca         1 A3H      -0.317300
      3 C1          -1.2800    -0.1200    -0.0210 ca         1 A3H       0.719200
      4 N1          -0.2110     3.2210     0.3720 na         1 A3H      -0.262100
      5 C2           1.1480    -0.0150    -0.1110 cp         1 A3H       0.094000
      6 C3           1.0830     3.6080     0.4100 cc         1 A3H      -0.071100
      7 N3          -2.3920    -0.9080    -0.0750 nu         1 A3H      -0.839600
      8 C4           1.8880     2.5060     0.2330 cd         1 A3H      -0.033900
      9 N4          -5.8060    -0.8490    -0.0430 na         1 A3H       0.113400
     10 C5           1.0170     1.3730     0.0730 ca         1 A3H      -0.210100
     11 N5          -4.6320    -1.4730    -0.1530 nc         1 A3H      -0.593800
     12 C6          -0.2880     1.8720     0.1810 ca         1 A3H       0.472800
     13 C7           3.2960     2.5560     0.2740 ch         1 A3H       0.235500
     14 C8           2.4590    -0.6730    -0.2730 cp         1 A3H      -0.052000
     15 C9           3.3570    -0.2260    -1.2380 ca         1 A3H      -0.105000
     16 C10          4.5740    -0.8700    -1.3990 ca         1 A3H      -0.122000
     17 C11          4.9050    -1.9530    -0.5980 ca         1 A3H      -0.118000
     18 C12          4.0220    -2.4160     0.3760 ca         1 A3H      -0.078300
     19 C13          2.7990    -1.7680     0.5200 ca         1 A3H      -0.110000
     20 C14         -3.7180    -0.5260    -0.0090 cd         1 A3H       0.574200
     21 C15         -4.3120     0.7350     0.1970 cd         1 A3H      -0.307300
     22 C16         -5.6630     0.4660     0.1650 cc         1 A3H      -0.128300
     23 C18          4.3910    -3.5670     1.2650 c3         1 A3H      -0.046800
     24 H1           0.0290    -1.8230    -0.2930 ha         1 A3H       0.146000
     25 H2          -1.0020     3.8360     0.4860 hn         1 A3H       0.313700
     26 H3           1.3610     4.6370     0.5640 h4         1 A3H       0.176000
     27 H4          -2.2420    -1.8960    -0.2070 hn         1 A3H       0.457800
     28 H5           3.1000     0.6080    -1.8800 ha         1 A3H       0.139000
     29 H6           5.2670    -0.5270    -2.1560 ha         1 A3H       0.135000
     30 H7           5.8610    -2.4460    -0.7310 ha         1 A3H       0.130000
     31 H8           2.1020    -2.1160     1.2740 ha         1 A3H       0.132000
     32 H9          -3.8340     1.6850     0.3460 ha         1 A3H       0.183000
     33 H10         -6.5120     1.1200     0.2770 h4         1 A3H       0.169000
     34 H11         -7.0840    -2.0990    -1.1200 h1         1 A3H       0.054367
     35 H12         -7.0970    -2.3450     0.6370 h1         1 A3H       0.054367
     36 H13         -7.8710    -0.9170    -0.0650 h1         1 A3H       0.054367
     37 H14          4.9970    -3.2300     2.1080 hc         1 A3H       0.042367
     38 H15          3.5080    -4.0560     1.6750 hc         1 A3H       0.042367
     39 H16          4.9740    -4.3150     0.7280 hc         1 A3H       0.042367
     40 C17         -7.0310    -1.5990    -0.1540 c3         1 A3H       0.049600
     41 N2           4.4470     2.6260     0.3120 n1         1 A3H      -0.381800
@<TRIPOS>BOND
     1     1     3 ar  
     2     1    12 ar  
     3     2     3 ar  
     4     2     5 ar  
     5     2    24 1   
     6     3     7 1   
     7     4     6 1   
     8     4    12 1   
     9     4    25 1   
    10     5    10 ar  
    11     5    14 1   
    12     6     8 2   
    13     6    26 1   
    14     7    20 1   
    15     7    27 1   
    16     8    10 1   
    17     8    13 1   
    18     9    11 1   
    19     9    22 1   
    20     9    40 1   
    21    10    12 ar  
    22    11    20 2   
    23    13    41 3   
    24    14    15 ar  
    25    14    19 ar  
    26    15    16 ar  
    27    15    28 1   
    28    16    17 ar  
    29    16    29 1   
    30    17    18 ar  
    31    17    30 1   
    32    18    19 ar  
    33    18    23 1   
    34    19    31 1   
    35    20    21 1   
    36    21    22 2   
    37    21    32 1   
    38    22    33 1   
    39    23    37 1   
    40    23    38 1   
    41    23    39 1   
    42    34    40 1   
    43    35    40 1   
    44    36    40 1   
@<TRIPOS>SUBSTRUCTURE
     1 A3H         1 TEMP              0 ****  ****    0 ROOT
