@<TRIPOS>MOLECULE
A3I
   79    83     1     0     0
SMALL
abcg2


@<TRIPOS>ATOM
      1 C13        -41.6800   -13.0210    30.0130 c3         1 A3I      -0.067400
      2 C15        -44.1610   -17.5370    32.2780 c2         1 A3I      -0.231200
      3 C17        -42.6150   -19.3660    32.9190 c6         1 A3I      -0.027500
      4 C20        -39.8670   -20.3250    32.6310 c6         1 A3I      -0.071400
      5 C21        -40.6540   -20.5890    33.9060 c6         1 A3I      -0.115400
      6 C22        -41.7140   -19.5200    34.1490 c6         1 A3I       0.176300
      7 C28        -41.6790   -16.2960    24.9380 c6         1 A3I      -0.077400
      8 C02        -43.6570   -17.3260    27.4900 c          1 A3I       0.607200
      9 C03        -42.3260   -17.4170    28.1290 ce         1 A3I      -0.476400
     10 C04        -41.7900   -18.0150    29.3490 c          1 A3I       0.651300
     11 C05        -42.6440   -18.5210    30.5080 c6         1 A3I      -0.092000
     12 C06        -43.5230   -19.6890    30.0470 c3         1 A3I      -0.096100
     13 C07        -43.5300   -17.3040    30.9420 c6         1 A3I      -0.023500
     14 C08        -42.8060   -15.9230    30.9480 c3         1 A3I      -0.118400
     15 C09        -43.3140   -14.9560    29.8610 c3         1 A3I       0.168300
     16 C11        -42.2110   -14.1660    29.1410 c3         1 A3I      -0.043700
     17 C12        -42.7170   -13.6970    27.7590 c3         1 A3I      -0.061400
     18 C14        -40.3900   -12.4030    29.4920 c3         1 A3I      -0.092100
     19 C16        -43.7530   -18.4310    33.1680 c2         1 A3I      -0.192200
     20 C18        -41.7580   -18.9650    31.7020 c6         1 A3I      -0.040700
     21 C19        -40.7900   -20.1260    31.4340 c6         1 A3I      -0.072400
     22 C25        -41.4900   -16.6010    27.3980 c2         1 A3I       0.247900
     23 C27        -42.2190   -15.8570    26.3130 c5         1 A3I       0.150600
     24 C29        -40.3310   -15.6830    24.5060 c6         1 A3I      -0.013500
     25 C30        -39.2310   -16.7460    24.4320 c3         1 A3I      -0.085100
     26 C31        -39.9290   -14.4650    25.3040 c2         1 A3I      -0.094400
     27 C32        -38.5590   -13.9120    25.0410 c3         1 A3I      -0.051900
     28 C33        -40.7530   -13.8670    26.1620 c2         1 A3I      -0.223200
     29 C34        -42.1690   -14.3010    26.4380 c6         1 A3I       0.010200
     30 C35        -43.0570   -13.6840    25.3350 c3         1 A3I      -0.088100
     31 N36        -43.5460   -16.3900    26.5130 ns         1 A3I      -0.520900
     32 O10        -44.2570   -14.0300    30.3720 oh         1 A3I      -0.663000
     33 O23        -42.5310   -19.8530    35.2530 oh         1 A3I      -0.662000
     34 O24        -40.5610   -17.9520    29.4880 o          1 A3I      -0.616100
     35 O26        -40.2190   -16.4520    27.5800 oh         1 A3I      -0.505100
     36 H1         -42.4400   -12.2440    30.1170 hc         1 A3I       0.048700
     37 H2         -41.4960   -13.4050    31.0210 hc         1 A3I       0.048700
     38 H3         -44.9960   -16.8840    32.5190 ha         1 A3I       0.170000
     39 H5         -43.0390   -20.3650    32.7280 hc         1 A3I       0.068700
     40 H6         -39.1800   -21.1540    32.4430 hc         1 A3I       0.042200
     41 H7         -39.2430   -19.4340    32.7560 hc         1 A3I       0.042200
     42 H8         -41.1560   -21.5600    33.8310 hc         1 A3I       0.044200
     43 H9         -39.9810   -20.6450    34.7670 hc         1 A3I       0.044200
     44 H10        -41.2110   -18.5550    34.3240 h1         1 A3I       0.031700
     45 H11        -42.4470   -16.0510    24.2020 hc         1 A3I       0.053200
     46 H12        -41.6120   -17.3870    24.9300 hc         1 A3I       0.053200
     47 H14        -44.1650   -20.0240    30.8610 hc         1 A3I       0.053367
     48 H15        -44.1630   -19.4070    29.2170 hc         1 A3I       0.053367
     49 H16        -42.9190   -20.5400    29.7290 hc         1 A3I       0.053367
     50 H17        -44.3480   -17.2420    30.2180 hc         1 A3I       0.072700
     51 H18        -41.7250   -16.0600    30.8650 hc         1 A3I       0.058200
     52 H19        -42.9410   -15.4470    31.9220 hc         1 A3I       0.058200
     53 H20        -43.8150   -15.5580    29.0990 h1         1 A3I       0.035700
     54 H21        -41.3690   -14.8470    29.0150 hc         1 A3I       0.047700
     55 H22        -42.5500   -12.6200    27.6630 hc         1 A3I       0.052200
     56 H23        -43.8050   -13.8070    27.7360 hc         1 A3I       0.052200
     57 H24        -40.0070   -11.6570    30.1890 hc         1 A3I       0.030367
     58 H25        -39.6140   -13.1590    29.3550 hc         1 A3I       0.030367
     59 H26        -40.5350   -11.9030    28.5340 hc         1 A3I       0.030367
     60 H27        -44.2800   -18.5130    34.1120 ha         1 A3I       0.191000
     61 H29        -41.1600   -18.0950    32.0030 hc         1 A3I       0.057700
     62 H30        -41.3590   -21.0460    31.2660 hc         1 A3I       0.049200
     63 H31        -40.1880   -19.9660    30.5430 hc         1 A3I       0.049200
     64 H33        -40.4660   -15.3220    23.4780 hc         1 A3I       0.050700
     65 H34        -38.3190   -16.3560    23.9790 hc         1 A3I       0.038367
     66 H35        -38.9760   -17.1370    25.4160 hc         1 A3I       0.038367
     67 H36        -39.5630   -17.5820    23.8160 hc         1 A3I       0.038367
     68 H38        -38.4200   -12.9440    25.5220 hc         1 A3I       0.041367
     69 H39        -37.7770   -14.5800    25.4090 hc         1 A3I       0.041367
     70 H40        -38.3820   -13.7850    23.9700 hc         1 A3I       0.041367
     71 H41        -40.4240   -12.9610    26.6610 ha         1 A3I       0.182000
     72 H43        -44.1060   -13.9670    25.4480 hc         1 A3I       0.040033
     73 H44        -43.0070   -12.5970    25.4050 hc         1 A3I       0.040033
     74 H45        -42.7300   -13.9530    24.3320 hc         1 A3I       0.040033
     75 H46        -44.2760   -16.2690    25.8280 hn         1 A3I       0.331500
     76 H47        -45.0190   -14.5240    30.6910 ho         1 A3I       0.443000
     77 H48        -41.9660   -19.9470    36.0260 ho         1 A3I       0.441000
     78 H49        -40.0090   -17.0610    28.3590 ho         1 A3I       0.540000
     79 O01        -44.6860   -17.9390    27.7250 o          1 A3I      -0.559000
@<TRIPOS>BOND
     1     1    16 1   
     2     1    18 1   
     3     1    36 1   
     4     1    37 1   
     5     2    13 1   
     6     2    19 2   
     7     2    38 1   
     8     3     6 1   
     9     3    19 1   
    10     3    20 1   
    11     3    39 1   
    12     4     5 1   
    13     4    21 1   
    14     4    40 1   
    15     4    41 1   
    16     5     6 1   
    17     5    42 1   
    18     5    43 1   
    19     6    33 1   
    20     6    44 1   
    21     7    23 1   
    22     7    24 1   
    23     7    45 1   
    24     7    46 1   
    25     8     9 1   
    26     8    31 1   
    27     8    79 2   
    28     9    10 1   
    29     9    22 2   
    30    10    11 1   
    31    10    34 2   
    32    11    12 1   
    33    11    13 1   
    34    11    20 1   
    35    12    47 1   
    36    12    48 1   
    37    12    49 1   
    38    13    14 1   
    39    13    50 1   
    40    14    15 1   
    41    14    51 1   
    42    14    52 1   
    43    15    16 1   
    44    15    32 1   
    45    15    53 1   
    46    16    17 1   
    47    16    54 1   
    48    17    29 1   
    49    17    55 1   
    50    17    56 1   
    51    18    57 1   
    52    18    58 1   
    53    18    59 1   
    54    19    60 1   
    55    20    21 1   
    56    20    61 1   
    57    21    62 1   
    58    21    63 1   
    59    22    23 1   
    60    22    35 1   
    61    23    29 1   
    62    23    31 1   
    63    24    25 1   
    64    24    26 1   
    65    24    64 1   
    66    25    65 1   
    67    25    66 1   
    68    25    67 1   
    69    26    27 1   
    70    26    28 2   
    71    27    68 1   
    72    27    69 1   
    73    27    70 1   
    74    28    29 1   
    75    28    71 1   
    76    29    30 1   
    77    30    72 1   
    78    30    73 1   
    79    30    74 1   
    80    31    75 1   
    81    32    76 1   
    82    33    77 1   
    83    35    78 1   
@<TRIPOS>SUBSTRUCTURE
     1 A3I         1 TEMP              0 ****  ****    0 ROOT
