@<TRIPOS>MOLECULE
A3I
   79    83     1     0     0
SMALL
No Charge or Current Charge


@<TRIPOS>ATOM
      1 C13        -42.2530   -12.8140    30.1170 c3         1 A3I      -0.067400
      2 C15        -44.1150   -17.4600    32.2880 c2         1 A3I      -0.231200
      3 C17        -42.2990   -19.1480    32.8070 c6         1 A3I      -0.027500
      4 C20        -39.6090   -20.0870    31.9320 c6         1 A3I      -0.071400
      5 C21        -40.0540   -20.1930    33.4120 c6         1 A3I      -0.115400
      6 C22        -41.0860   -19.0960    33.7860 c6         1 A3I       0.176300
      7 C28        -41.4540   -16.3490    25.0940 c6         1 A3I      -0.077400
      8 C02        -43.8720   -17.4000    27.1140 c          1 A3I       0.607200
      9 C03        -42.6990   -17.6260    27.9190 ce         1 A3I      -0.476400
     10 C04        -42.6210   -18.8040    28.8100 c          1 A3I       0.651300
     11 C05        -43.0490   -18.7570    30.3400 c6         1 A3I      -0.092000
     12 C06        -44.0870   -19.9390    30.4840 c3         1 A3I      -0.096100
     13 C07        -43.7610   -17.4100    30.8020 c6         1 A3I      -0.023500
     14 C08        -42.9310   -16.0850    30.6290 c3         1 A3I      -0.118400
     15 C09        -43.5450   -15.0360    29.6790 c3         1 A3I       0.168300
     16 C11        -42.4930   -14.0100    29.1420 c3         1 A3I      -0.043700
     17 C12        -42.8450   -13.5860    27.6860 c3         1 A3I      -0.061400
     18 C14        -40.9990   -11.9660    29.8060 c3         1 A3I      -0.092100
     19 C16        -43.4380   -18.1990    33.1840 c2         1 A3I      -0.192200
     20 C18        -41.8160   -18.9390    31.3290 c6         1 A3I      -0.040700
     21 C19        -40.8190   -20.0810    30.9620 c6         1 A3I      -0.072400
     22 C25        -41.7360   -16.7550    27.5880 c2         1 A3I       0.247900
     23 C27        -42.2170   -15.8820    26.3780 c5         1 A3I       0.150600
     24 C29        -39.9890   -15.8110    24.9420 c6         1 A3I      -0.013500
     25 C30        -38.9390   -16.9540    25.1000 c3         1 A3I      -0.085100
     26 C31        -39.6630   -14.5890    25.8300 c2         1 A3I      -0.094400
     27 C32        -38.2190   -14.1140    25.8160 c3         1 A3I      -0.051900
     28 C33        -40.6100   -13.9310    26.5240 c2         1 A3I      -0.223200
     29 C34        -42.0880   -14.2980    26.4900 c6         1 A3I       0.010200
     30 C35        -42.6690   -13.5800    25.2180 c3         1 A3I      -0.088100
     31 N36        -43.6160   -16.3430    26.3010 ns         1 A3I      -0.520900
     32 O10        -44.6360   -14.3740    30.3310 oh         1 A3I      -0.663000
     33 O23        -41.5090   -19.3000    35.1400 oh         1 A3I      -0.662000
     34 O24        -42.4000   -19.8740    28.2560 o          1 A3I      -0.616100
     35 O26        -40.4860   -16.7540    28.0780 oh         1 A3I      -0.505100
     36 H1         -43.1310   -12.1570    30.1210 hc         1 A3I       0.048700
     37 H2         -42.1480   -13.2020    31.1370 hc         1 A3I       0.048700
     38 H3         -44.9420   -16.8250    32.6130 ha         1 A3I       0.170000
     39 H5         -42.7130   -20.1630    32.8900 hc         1 A3I       0.068700
     40 H6         -38.9400   -20.9230    31.6860 hc         1 A3I       0.042200
     41 H7         -39.0200   -19.1700    31.7920 hc         1 A3I       0.042200
     42 H8         -40.4880   -21.1870    33.5880 hc         1 A3I       0.044200
     43 H9         -39.1730   -20.1180    34.0640 hc         1 A3I       0.044200
     44 H10        -40.6060   -18.1110    33.6940 h1         1 A3I       0.031700
     45 H11        -42.0280   -16.0580    24.2050 hc         1 A3I       0.053200
     46 H12        -41.4590   -17.4480    25.0570 hc         1 A3I       0.053200
     47 H14        -44.5790   -19.9700    31.4620 hc         1 A3I       0.053367
     48 H15        -44.8880   -19.8460    29.7410 hc         1 A3I       0.053367
     49 H16        -43.6190   -20.9190    30.3330 hc         1 A3I       0.053367
     50 H17        -44.6940   -17.3040    30.2290 hc         1 A3I       0.072700
     51 H18        -41.9310   -16.3210    30.2640 hc         1 A3I       0.058200
     52 H19        -42.7450   -15.6020    31.5970 hc         1 A3I       0.058200
     53 H20        -43.9480   -15.5750    28.8200 h1         1 A3I       0.035700
     54 H21        -41.5250   -14.5160    29.0840 hc         1 A3I       0.047700
     55 H22        -42.6880   -12.5050    27.6020 hc         1 A3I       0.052200
     56 H23        -43.9280   -13.6980    27.5460 hc         1 A3I       0.052200
     57 H24        -40.8530   -11.2100    30.5860 hc         1 A3I       0.030367
     58 H25        -40.1020   -12.5960    29.7730 hc         1 A3I       0.030367
     59 H26        -41.0930   -11.4430    28.8480 hc         1 A3I       0.030367
     60 H27        -43.7250   -18.1830    34.2380 ha         1 A3I       0.191000
     61 H29        -41.2160   -18.0220    31.3150 hc         1 A3I       0.057700
     62 H30        -41.3220   -21.0570    30.9900 hc         1 A3I       0.049200
     63 H31        -40.4340   -19.9530    29.9430 hc         1 A3I       0.049200
     64 H33        -39.8760   -15.4850    23.8980 hc         1 A3I       0.050700
     65 H34        -37.9430   -16.6370    24.7690 hc         1 A3I       0.038367
     66 H35        -38.8500   -17.2940    26.1370 hc         1 A3I       0.038367
     67 H36        -39.2050   -17.8240    24.4880 hc         1 A3I       0.038367
     68 H38        -38.1030   -13.1580    26.3420 hc         1 A3I       0.041367
     69 H39        -37.5550   -14.8320    26.3100 hc         1 A3I       0.041367
     70 H40        -37.8610   -13.9670    24.7910 hc         1 A3I       0.041367
     71 H41        -40.3410   -13.0560    27.1160 ha         1 A3I       0.182000
     72 H43        -43.7220   -13.8380    25.0520 hc         1 A3I       0.040033
     73 H44        -42.6130   -12.4880    25.3090 hc         1 A3I       0.040033
     74 H45        -42.1200   -13.8280    24.3030 hc         1 A3I       0.040033
     75 H46        -44.3180   -16.0440    25.6370 hn         1 A3I       0.331500
     76 H47        -45.2030   -15.0730    30.7180 ho         1 A3I       0.443000
     77 H48        -40.7040   -19.2320    35.6980 ho         1 A3I       0.441000
     78 H49        -40.4070   -17.4880    28.7160 ho         1 A3I       0.540000
     79 O01        -44.9200   -18.0150    27.1540 o          1 A3I      -0.559000
@<TRIPOS>BOND
     1     1    16 1   
     2     1    18 1   
     3     1    36 1   
     4     1    37 1   
     5     2    13 1   
     6     2    19 2   
     7     2    38 1   
     8     3     6 1   
     9     3    19 1   
    10     3    20 1   
    11     3    39 1   
    12     4     5 1   
    13     4    21 1   
    14     4    40 1   
    15     4    41 1   
    16     5     6 1   
    17     5    42 1   
    18     5    43 1   
    19     6    33 1   
    20     6    44 1   
    21     7    23 1   
    22     7    24 1   
    23     7    45 1   
    24     7    46 1   
    25     8     9 1   
    26     8    31 1   
    27     8    79 2   
    28     9    10 1   
    29     9    22 2   
    30    10    11 1   
    31    10    34 2   
    32    11    12 1   
    33    11    13 1   
    34    11    20 1   
    35    12    47 1   
    36    12    48 1   
    37    12    49 1   
    38    13    14 1   
    39    13    50 1   
    40    14    15 1   
    41    14    51 1   
    42    14    52 1   
    43    15    16 1   
    44    15    32 1   
    45    15    53 1   
    46    16    17 1   
    47    16    54 1   
    48    17    29 1   
    49    17    55 1   
    50    17    56 1   
    51    18    57 1   
    52    18    58 1   
    53    18    59 1   
    54    19    60 1   
    55    20    21 1   
    56    20    61 1   
    57    21    62 1   
    58    21    63 1   
    59    22    23 1   
    60    22    35 1   
    61    23    29 1   
    62    23    31 1   
    63    24    25 1   
    64    24    26 1   
    65    24    64 1   
    66    25    65 1   
    67    25    66 1   
    68    25    67 1   
    69    26    27 1   
    70    26    28 2   
    71    27    68 1   
    72    27    69 1   
    73    27    70 1   
    74    28    29 1   
    75    28    71 1   
    76    29    30 1   
    77    30    72 1   
    78    30    73 1   
    79    30    74 1   
    80    31    75 1   
    81    32    76 1   
    82    33    77 1   
    83    35    78 1   
@<TRIPOS>SUBSTRUCTURE
     1 A3I         1 TEMP              0 ****  ****    0 ROOT
