@<TRIPOS>MOLECULE
A3J
   41    43     1     0     0
SMALL
No Charge or Current Charge


@<TRIPOS>ATOM
      1 N3          -1.4070     3.1850    -0.0180 n1         1 A3J      -0.461000
      2 C4          -0.2790    -3.4320     0.2910 cc         1 A3J      -0.343800
      3 N2          -1.9670    -1.6390     0.0860 nb         1 A3J      -0.622000
      4 C7           0.2710     0.0890     0.2440 ca         1 A3J       0.443000
      5 C6           0.3970    -1.3000     0.2920 ca         1 A3J      -0.158200
      6 C9          -2.1390    -0.2860     0.0330 ca         1 A3J       0.305300
      7 C13          3.2980     1.9720     1.2030 c5         1 A3J      -0.128400
      8 C8          -1.0330     0.6130     0.1090 ca         1 A3J      -0.154000
      9 C16          4.6640     2.2920    -0.9750 c3         1 A3J      -0.116100
     10 C1           2.8540    -4.8390    -0.7350 c3         1 A3J      -0.090100
     11 C3           1.1040    -3.4190     0.4230 cd         1 A3J      -0.048300
     12 C5          -0.7110    -2.0790     0.2110 ca         1 A3J       0.381800
     13 N1           1.5450    -2.0760     0.4300 na         1 A3J      -0.203700
     14 C10         -3.6020     0.2150    -0.1170 c3         1 A3J       0.263700
     15 F1          -4.5100    -0.7920    -0.1640 f          1 A3J      -0.103333
     16 F2          -3.9730     1.0090     0.9160 f          1 A3J      -0.103333
     17 F3          -3.7770     0.9330    -1.2510 f          1 A3J      -0.103333
     18 C11         -1.2270     2.0330     0.0380 cg         1 A3J       0.335000
     19 N4           1.4270     0.8940     0.3210 nh         1 A3J      -0.817400
     20 C12          1.8090     1.6760     1.5180 c5         1 A3J       0.230800
     21 C14          3.2650     2.2950    -0.3190 c5         1 A3J       0.166000
     22 C15          2.3320     1.1380    -0.8360 c5         1 A3J       0.222800
     23 O1           2.7090     3.5950    -0.5550 oh         1 A3J      -0.645000
     24 H7          -0.9110    -4.3130     0.2560 ha         1 A3J       0.223000
     25 H10          3.6950     2.7940     1.8090 hc         1 A3J       0.063700
     26 H11          3.9180     1.0920     1.4080 hc         1 A3J       0.063700
     27 H15          4.5970     2.4790    -2.0540 hc         1 A3J       0.048700
     28 H14          5.3130     3.0610    -0.5390 hc         1 A3J       0.048700
     29 H16          5.1610     1.3240    -0.8380 hc         1 A3J       0.048700
     30 H2           2.1850    -5.0350    -1.5820 hc         1 A3J       0.039367
     31 H4           3.4730    -3.9670    -0.9770 hc         1 A3J       0.039367
     32 H3           3.5140    -5.7060    -0.6100 hc         1 A3J       0.039367
     33 H5           1.4730    -5.4990     0.7910 hc         1 A3J       0.059700
     34 H6           2.7320    -4.4290     1.3860 hc         1 A3J       0.059700
     35 H1           2.4980    -1.7420     0.5280 hn         1 A3J       0.348000
     36 H8           1.6980     1.1060     2.4510 h1         1 A3J       0.068700
     37 H9           1.2220     2.6020     1.6020 h1         1 A3J       0.068700
     38 H12          2.9120     0.2360    -1.0730 h1         1 A3J       0.055200
     39 H13          1.7820     1.4390    -1.7380 h1         1 A3J       0.055200
     40 H17          3.3190     4.2440    -0.1440 ho         1 A3J       0.448000
     41 C2           2.0410    -4.5920     0.5500 c3         1 A3J      -0.028200
@<TRIPOS>BOND
     1     1    18 3   
     2     2    11 2   
     3     2    12 1   
     4     2    24 1   
     5     3     6 ar  
     6     3    12 ar  
     7     4     5 ar  
     8     4     8 ar  
     9     4    19 1   
    10     5    12 ar  
    11     5    13 1   
    12     6     8 ar  
    13     6    14 1   
    14     7    20 1   
    15     7    21 1   
    16     7    25 1   
    17     7    26 1   
    18     8    18 1   
    19     9    21 1   
    20     9    27 1   
    21     9    28 1   
    22     9    29 1   
    23    10    30 1   
    24    10    31 1   
    25    10    32 1   
    26    10    41 1   
    27    11    13 1   
    28    11    41 1   
    29    13    35 1   
    30    14    15 1   
    31    14    16 1   
    32    14    17 1   
    33    19    20 1   
    34    19    22 1   
    35    20    36 1   
    36    20    37 1   
    37    21    22 1   
    38    21    23 1   
    39    22    38 1   
    40    22    39 1   
    41    23    40 1   
    42    33    41 1   
    43    34    41 1   
@<TRIPOS>SUBSTRUCTURE
     1 A3J         1 TEMP              0 ****  ****    0 ROOT
