@<TRIPOS>MOLECULE
A3J
   41    43     1     0     0
SMALL
bcc


@<TRIPOS>ATOM
      1 N3          -1.7410     3.0720     0.2590 n1         1 A3J      -0.371800
      2 C4          -0.2960    -3.4130     0.0600 cc         1 A3J      -0.293800
      3 N2          -1.9890    -1.6300     0.3740 nb         1 A3J      -0.622000
      4 C7           0.2880     0.1600     0.2950 ca         1 A3J       0.304600
      5 C6           0.4000    -1.2430     0.1670 ca         1 A3J      -0.223500
      6 C9          -2.1210    -0.3430     0.4800 ca         1 A3J       0.370600
      7 C13          2.8370     2.6610     0.9910 c5         1 A3J      -0.128400
      8 C8          -1.0610     0.5980     0.4240 ca         1 A3J      -0.219300
      9 C16          4.9700     1.6830    -0.0290 c3         1 A3J      -0.116100
     10 C1           2.9040    -4.3590    -1.4630 c3         1 A3J      -0.090100
     11 C3           1.0690    -3.3750    -0.0410 cd         1 A3J      -0.048300
     12 C5          -0.7340    -2.0750     0.2000 ca         1 A3J       0.447100
     13 N1           1.4780    -2.0770     0.0190 na         1 A3J      -0.153400
     14 C10         -3.5430     0.1410     0.6640 c3         1 A3J       0.627600
     15 F1          -4.3890    -0.8660     0.8320 f          1 A3J      -0.224633
     16 F2          -3.6560     0.9410     1.7310 f          1 A3J      -0.224633
     17 F3          -3.9620     0.8410    -0.4000 f          1 A3J      -0.224633
     18 C11         -1.4120     1.9710     0.3600 cg         1 A3J       0.245800
     19 N4           1.3460     0.9910     0.2950 nh         1 A3J      -0.679000
     20 C12          1.3560     2.3550     0.8360 c5         1 A3J       0.230800
     21 C14          3.4730     1.8880    -0.1640 c5         1 A3J       0.142800
     22 C15          2.6880     0.5840    -0.0960 c5         1 A3J       0.222800
     23 O1           3.1360     2.4730    -1.4070 oh         1 A3J      -0.582800
     24 H7          -0.9160    -4.2940     0.0390 ha         1 A3J       0.173000
     25 H10          3.0400     3.7320     0.9560 hc         1 A3J       0.063700
     26 H11          3.2130     2.2880     1.9460 hc         1 A3J       0.063700
     27 H15          5.3560     1.0510    -0.8300 hc         1 A3J       0.048700
     28 H14          5.5000     2.6360    -0.0740 hc         1 A3J       0.048700
     29 H16          5.2260     1.2200     0.9230 hc         1 A3J       0.048700
     30 H2           2.2840    -4.3200    -2.3570 hc         1 A3J       0.039367
     31 H4           3.5270    -3.4640    -1.4480 hc         1 A3J       0.039367
     32 H3           3.5730    -5.2140    -1.5510 hc         1 A3J       0.039367
     33 H5           1.4990    -5.4230    -0.2190 hc         1 A3J       0.059700
     34 H6           2.7010    -4.5260     0.6770 hc         1 A3J       0.059700
     35 H1           2.4450    -1.8090     0.0580 hn         1 A3J       0.297700
     36 H8           0.8210     2.3960     1.7850 h1         1 A3J       0.068700
     37 H9           0.8950     3.0630     0.1490 h1         1 A3J       0.068700
     38 H12          3.1510    -0.0570     0.6630 h1         1 A3J       0.055200
     39 H13          2.6920     0.0680    -1.0580 h1         1 A3J       0.055200
     40 H17          3.5730     3.3270    -1.4690 ho         1 A3J       0.409000
     41 C2           2.0510    -4.4830    -0.2020 c3         1 A3J      -0.028200
@<TRIPOS>BOND
     1     1    18 3   
     2     2    11 2   
     3     2    12 1   
     4     2    24 1   
     5     3     6 ar  
     6     3    12 ar  
     7     4     5 ar  
     8     4     8 ar  
     9     4    19 1   
    10     5    12 ar  
    11     5    13 1   
    12     6     8 ar  
    13     6    14 1   
    14     7    20 1   
    15     7    21 1   
    16     7    25 1   
    17     7    26 1   
    18     8    18 1   
    19     9    21 1   
    20     9    27 1   
    21     9    28 1   
    22     9    29 1   
    23    10    30 1   
    24    10    31 1   
    25    10    32 1   
    26    10    41 1   
    27    11    13 1   
    28    11    41 1   
    29    13    35 1   
    30    14    15 1   
    31    14    16 1   
    32    14    17 1   
    33    19    20 1   
    34    19    22 1   
    35    20    36 1   
    36    20    37 1   
    37    21    22 1   
    38    21    23 1   
    39    22    38 1   
    40    22    39 1   
    41    23    40 1   
    42    33    41 1   
    43    34    41 1   
@<TRIPOS>SUBSTRUCTURE
     1 A3J         1 TEMP              0 ****  ****    0 ROOT
