@<TRIPOS>MOLECULE
A3K
   31    33     1     0     0
SMALL
No Charge or Current Charge


@<TRIPOS>ATOM
      1 C01          4.3750     1.6350    -1.3770 c3         1 A3K      -0.045800
      2 C23          3.4270     0.9030    -0.4400 ca         1 A3K      -0.078300
      3 C21          2.0350     1.0680    -0.5700 ca         1 A3K      -0.093000
      4 C24          3.9320     0.0510     0.5600 ca         1 A3K      -0.100000
      5 C26          3.0540    -0.6210     1.4260 ca         1 A3K      -0.104000
      6 C28          1.6670    -0.4500     1.2920 ca         1 A3K      -0.087000
      7 C30          1.1340     0.3870     0.2830 cp         1 A3K      -0.052000
      8 C31         -0.3360     0.5880     0.1490 cp         1 A3K       0.093000
      9 C15         -1.2650    -0.4520    -0.0940 ca         1 A3K      -0.144800
     10 C19         -0.9020     1.8760     0.2690 ca         1 A3K      -0.235000
     11 C18         -2.2880     2.0230     0.1640 ca         1 A3K       0.622900
     12 N05         -2.9180     3.1930     0.2810 nv         1 A3K      -1.056900
     13 N17         -3.1520     1.0380    -0.0430 nb         1 A3K      -0.765000
     14 C16         -2.6200    -0.1890    -0.1710 ca         1 A3K       0.409500
     15 N13         -3.2700    -1.3770    -0.4100 na         1 A3K      -0.314400
     16 C10         -2.3650    -2.4500    -0.5200 cc         1 A3K      -0.119100
     17 C12         -1.1140    -1.8820    -0.3320 cd         1 A3K      -0.035900
     18 C09          0.0850    -2.6440    -0.4280 ch         1 A3K       0.324700
     19 N08          1.0480    -3.2980    -0.5210 n1         1 A3K      -0.472000
     20 H1           4.5520     1.0510    -2.2880 hc         1 A3K       0.042367
     21 H2           3.9690     2.6090    -1.6760 hc         1 A3K       0.042367
     22 H3           5.3470     1.8180    -0.9020 hc         1 A3K       0.042367
     23 H4           1.6410     1.7240    -1.3430 ha         1 A3K       0.114000
     24 H5           5.0060    -0.0880     0.6690 ha         1 A3K       0.112000
     25 H6           3.4490    -1.2730     2.2020 ha         1 A3K       0.117000
     26 H7           0.9950    -0.9670     1.9740 ha         1 A3K       0.121000
     27 H8          -0.2720     2.7400     0.4520 ha         1 A3K       0.126000
     28 H9          -2.4360     3.9320     0.7800 hn         1 A3K       0.474500
     29 H10         -3.9190     3.1270     0.4220 hn         1 A3K       0.474500
     30 H11         -4.2760    -1.4440    -0.5010 hn         1 A3K       0.364000
     31 H12         -2.6630    -3.4740    -0.7290 h4         1 A3K       0.226000
@<TRIPOS>BOND
     1     1     2 1   
     2     1    20 1   
     3     1    21 1   
     4     1    22 1   
     5     2     3 ar  
     6     2     4 ar  
     7     3     7 ar  
     8     3    23 1   
     9     4     5 ar  
    10     4    24 1   
    11     5     6 ar  
    12     5    25 1   
    13     6     7 ar  
    14     6    26 1   
    15     7     8 1   
    16     8     9 ar  
    17     8    10 ar  
    18     9    14 ar  
    19     9    17 1   
    20    10    11 ar  
    21    10    27 1   
    22    11    12 1   
    23    11    13 ar  
    24    12    28 1   
    25    12    29 1   
    26    13    14 ar  
    27    14    15 1   
    28    15    16 1   
    29    15    30 1   
    30    16    17 2   
    31    16    31 1   
    32    17    18 1   
    33    18    19 3   
@<TRIPOS>SUBSTRUCTURE
     1 A3K         1 TEMP              0 ****  ****    0 ROOT
