@<TRIPOS>MOLECULE
A3K
   31    33     1     0     0
SMALL
bcc


@<TRIPOS>ATOM
      1 C01          4.3150     1.7890    -1.2740 c3         1 A3K      -0.045800
      2 C23          3.3930     0.9840    -0.4050 ca         1 A3K      -0.078300
      3 C21          2.0130     1.1160    -0.5200 ca         1 A3K      -0.111000
      4 C24          3.8940     0.0700     0.5210 ca         1 A3K      -0.118000
      5 C26          3.0370    -0.6900     1.3030 ca         1 A3K      -0.122000
      6 C28          1.6640    -0.5560     1.1730 ca         1 A3K      -0.105000
      7 C30          1.1420     0.3520     0.2540 cp         1 A3K      -0.052000
      8 C31         -0.3170     0.5360     0.1270 cp         1 A3K       0.093000
      9 C15         -1.2040    -0.5360    -0.0680 ca         1 A3K      -0.210100
     10 C19         -0.8700     1.7970     0.2040 ca         1 A3K      -0.318300
     11 C18         -2.2730     1.9870     0.1160 ca         1 A3K       0.688200
     12 N05         -2.7890     3.2450     0.1580 nv         1 A3K      -0.946500
     13 N17         -3.1220     0.9800    -0.0410 nb         1 A3K      -0.765000
     14 C16         -2.5690    -0.2190    -0.1330 ca         1 A3K       0.474800
     15 N13         -3.2620    -1.3790    -0.3330 na         1 A3K      -0.264100
     16 C10         -2.4060    -2.4210    -0.4180 cc         1 A3K      -0.069100
     17 C12         -1.1190    -1.9600    -0.2640 cd         1 A3K      -0.035900
     18 C09          0.0190    -2.7850    -0.3550 ch         1 A3K       0.235500
     19 N08          0.9350    -3.4830    -0.4420 n1         1 A3K      -0.382800
     20 H1           4.5380     1.2590    -2.2020 hc         1 A3K       0.042367
     21 H2           3.8730     2.7460    -1.5470 hc         1 A3K       0.042367
     22 H3           5.2650     1.9830    -0.7770 hc         1 A3K       0.042367
     23 H4           1.6030     1.8220    -1.2340 ha         1 A3K       0.132000
     24 H5           4.9660    -0.0440     0.6340 ha         1 A3K       0.130000
     25 H6           3.4430    -1.3870     2.0260 ha         1 A3K       0.135000
     26 H7           1.0010    -1.1340     1.8040 ha         1 A3K       0.139000
     27 H8          -0.2320     2.6570     0.3600 ha         1 A3K       0.144000
     28 H9          -2.2260     3.9710     0.5680 hn         1 A3K       0.419300
     29 H10         -3.7740     3.3260     0.3470 hn         1 A3K       0.419300
     30 H11         -4.2650    -1.4460    -0.4150 hn         1 A3K       0.313700
     31 H12         -2.7540    -3.4260    -0.5880 h4         1 A3K       0.176000
@<TRIPOS>BOND
     1     1     2 1   
     2     1    20 1   
     3     1    21 1   
     4     1    22 1   
     5     2     3 ar  
     6     2     4 ar  
     7     3     7 ar  
     8     3    23 1   
     9     4     5 ar  
    10     4    24 1   
    11     5     6 ar  
    12     5    25 1   
    13     6     7 ar  
    14     6    26 1   
    15     7     8 1   
    16     8     9 ar  
    17     8    10 ar  
    18     9    14 ar  
    19     9    17 1   
    20    10    11 ar  
    21    10    27 1   
    22    11    12 1   
    23    11    13 ar  
    24    12    28 1   
    25    12    29 1   
    26    13    14 ar  
    27    14    15 1   
    28    15    16 1   
    29    15    30 1   
    30    16    17 2   
    31    16    31 1   
    32    17    18 1   
    33    18    19 3   
@<TRIPOS>SUBSTRUCTURE
     1 A3K         1 TEMP              0 ****  ****    0 ROOT
