@<TRIPOS>MOLECULE
A3M
   30    30     1     0     0
SMALL
bcc


@<TRIPOS>ATOM
      1 C1          -0.0400    -0.0140    -3.5010 c5         1 A3M      -0.094900
      2 C2           0.8940     0.4190    -2.3770 c5         1 A3M       0.101500
      3 N3           0.2140    -0.0440    -1.1710 n          1 A3M      -0.484800
      4 C4          -1.1600    -0.4680    -1.4390 c5         1 A3M       0.101500
      5 C5          -1.4180     0.0460    -2.8510 c5         1 A3M      -0.094900
      6 C14          0.8570    -0.1240     0.0030 c          1 A3M       0.680100
      7 C15          0.0680    -0.6370     1.2000 c3         1 A3M       0.095500
      8 C16         -0.6950     0.5320     1.8800 c3         1 A3M      -0.097700
      9 C17         -1.6960    -0.0160     2.8940 c3         1 A3M      -0.091600
     10 O18          2.0290     0.2230     0.1210 o          1 A3M      -0.608100
     11 N19          0.9760    -1.3780     2.0540 n8         1 A3M      -0.880800
     12 C26          0.2310     1.5480     2.5400 c3         1 A3M      -0.091600
     13 HC11         0.0500     0.6270    -4.3770 hc         1 A3M       0.053950
     14 HC12         0.1900    -1.0370    -3.8090 hc         1 A3M       0.053950
     15 HC21         1.0150     1.5060    -2.3550 h1         1 A3M       0.050950
     16 HC22         1.8870    -0.0210    -2.4600 h1         1 A3M       0.050950
     17 HC41        -1.2460    -1.5580    -1.3970 h1         1 A3M       0.050950
     18 HC42        -1.8610    -0.0480    -0.7180 h1         1 A3M       0.050950
     19 HC51        -1.7750     1.0770    -2.8160 hc         1 A3M       0.053950
     20 HC52        -2.1680    -0.5500    -3.3690 hc         1 A3M       0.053950
     21 H15         -0.6900    -1.3440     0.8510 h1         1 A3M       0.064700
     22 H16         -1.2680     1.0520     1.1030 hc         1 A3M       0.052700
     23 H171        -2.2760     0.7930     3.3410 hc         1 A3M       0.036867
     24 H172        -2.3970    -0.7120     2.4290 hc         1 A3M       0.036867
     25 H173        -1.1970    -0.5420     3.7110 hc         1 A3M       0.036867
     26 H191         1.7360    -0.7810     2.3560 hn         1 A3M       0.353300
     27 H192         0.4930    -1.6800     2.8900 hn         1 A3M       0.353300
     28 H261         0.8440     1.0820     3.3150 hc         1 A3M       0.036867
     29 H262         0.9010     2.0310     1.8290 hc         1 A3M       0.036867
     30 H263        -0.3550     2.3320     3.0210 hc         1 A3M       0.036867
@<TRIPOS>BOND
     1     1     2 1   
     2     1     5 1   
     3     1    13 1   
     4     1    14 1   
     5     2     3 1   
     6     2    15 1   
     7     2    16 1   
     8     3     4 1   
     9     3     6 1   
    10     4     5 1   
    11     4    17 1   
    12     4    18 1   
    13     5    19 1   
    14     5    20 1   
    15     6     7 1   
    16     6    10 2   
    17     7     8 1   
    18     7    11 1   
    19     7    21 1   
    20     8     9 1   
    21     8    12 1   
    22     8    22 1   
    23     9    23 1   
    24     9    24 1   
    25     9    25 1   
    26    11    26 1   
    27    11    27 1   
    28    12    28 1   
    29    12    29 1   
    30    12    30 1   
@<TRIPOS>SUBSTRUCTURE
     1 A3M         1 TEMP              0 ****  ****    0 ROOT
