@<TRIPOS>MOLECULE
A3M
   30    30     1     0     0
SMALL
No Charge or Current Charge


@<TRIPOS>ATOM
      1 C1          -0.0990     0.0010    -3.5780 c5         1 A3M      -0.094900
      2 C2           0.9030     0.4460    -2.4810 c5         1 A3M       0.101500
      3 N3           0.2500    -0.0450    -1.2480 n          1 A3M      -0.417800
      4 C4          -1.1360    -0.5110    -1.4780 c5         1 A3M       0.101500
      5 C5          -1.4550     0.1410    -2.8460 c5         1 A3M      -0.094900
      6 C14          0.9490    -0.1830    -0.0260 c          1 A3M       0.613100
      7 C15          0.1630    -0.6790     1.2570 c3         1 A3M       0.095500
      8 C16         -0.6600     0.4760     1.9130 c3         1 A3M      -0.097700
      9 C17         -1.7360    -0.0470     2.8970 c3         1 A3M      -0.091600
     10 O18          2.1460     0.0910     0.0270 o          1 A3M      -0.608100
     11 N19          0.9820    -1.4020     2.2930 n8         1 A3M      -0.991200
     12 C26          0.2220     1.5670     2.5720 c3         1 A3M      -0.091600
     13 HC11        -0.0340     0.6200    -4.4800 hc         1 A3M       0.053950
     14 HC12         0.0820    -1.0380    -3.8780 hc         1 A3M       0.053950
     15 HC21         1.0070     1.5390    -2.4500 h1         1 A3M       0.050950
     16 HC22         1.8980     0.0060    -2.6350 h1         1 A3M       0.050950
     17 HC41        -1.1700    -1.6080    -1.5370 h1         1 A3M       0.050950
     18 HC42        -1.8390    -0.1810    -0.7030 h1         1 A3M       0.050950
     19 HC51        -1.7350     1.1950    -2.7260 hc         1 A3M       0.053950
     20 HC52        -2.2770    -0.3610    -3.3680 hc         1 A3M       0.053950
     21 H15         -0.5630    -1.4160     0.8900 h1         1 A3M       0.064700
     22 H16         -1.2090     0.9780     1.1070 hc         1 A3M       0.052700
     23 H171        -2.3740     0.7760     3.2420 hc         1 A3M       0.036867
     24 H172        -2.3810    -0.7890     2.4100 hc         1 A3M       0.036867
     25 H173        -1.2810    -0.5120     3.7800 hc         1 A3M       0.036867
     26 H191         1.7510    -0.7870     2.5860 hn         1 A3M       0.408500
     27 H192         0.4200    -1.5100     3.1450 hn         1 A3M       0.408500
     28 H261         0.7790     1.1690     3.4280 hc         1 A3M       0.036867
     29 H262         0.9400     1.9800     1.8540 hc         1 A3M       0.036867
     30 H263        -0.4000     2.3960     2.9320 hc         1 A3M       0.036867
@<TRIPOS>BOND
     1     1     2 1   
     2     1     5 1   
     3     1    13 1   
     4     1    14 1   
     5     2     3 1   
     6     2    15 1   
     7     2    16 1   
     8     3     4 1   
     9     3     6 1   
    10     4     5 1   
    11     4    17 1   
    12     4    18 1   
    13     5    19 1   
    14     5    20 1   
    15     6     7 1   
    16     6    10 2   
    17     7     8 1   
    18     7    11 1   
    19     7    21 1   
    20     8     9 1   
    21     8    12 1   
    22     8    22 1   
    23     9    23 1   
    24     9    24 1   
    25     9    25 1   
    26    11    26 1   
    27    11    27 1   
    28    12    28 1   
    29    12    29 1   
    30    12    30 1   
@<TRIPOS>SUBSTRUCTURE
     1 A3M         1 TEMP              0 ****  ****    0 ROOT
