@<TRIPOS>MOLECULE
A3N
   38    40     1     0     0
SMALL
No Charge or Current Charge


@<TRIPOS>ATOM
      1 C13         -1.6040    -3.6810     1.9750 c1         1 A3N      -0.221000
      2 C12         -1.9700    -2.8660     1.1570 c1         1 A3N      -0.153100
      3 C11         -2.3770    -1.8730     0.1590 c3         1 A3N       0.244900
      4 N5          -2.3210    -0.5300     0.7480 n7         1 A3N      -0.847400
      5 C10         -2.5900     0.5800    -0.1900 c3         1 A3N       0.144800
      6 C9          -2.1450     1.9550     0.4020 c5         1 A3N       0.163300
      7 O1          -0.7810     1.8910     0.8840 os         1 A3N      -0.449000
      8 C8          -2.0800     3.1210    -0.6280 c5         1 A3N       0.112300
      9 O2          -2.0220     4.4110    -0.0100 oh         1 A3N      -0.700000
     10 C7          -0.7130     2.8360    -1.3360 c5         1 A3N       0.082300
     11 O3          -0.0980     4.0820    -1.7370 oh         1 A3N      -0.692000
     12 C6           0.1140     2.0290    -0.2460 c5         1 A3N       0.315300
     13 N3           0.6380     0.7060    -0.6290 na         1 A3N      -0.289300
     14 C5           0.8750     0.2640    -1.9380 cc         1 A3N       0.402700
     15 N4           1.3530    -0.9930    -1.9610 nd         1 A3N      -0.550100
     16 C2           1.4330    -1.3300    -0.6070 ca         1 A3N      -0.104600
     17 C3           1.0120    -0.3120     0.2110 ca         1 A3N       0.146500
     18 N2           1.0130    -0.4290     1.5550 nb         1 A3N      -0.216000
     19 C4           1.4510    -1.6140     2.0430 ca         1 A3N       0.185900
     20 N1           1.8830    -2.6780     1.3240 nb         1 A3N      -0.303000
     21 C1           1.8720    -2.5290    -0.0090 ca         1 A3N       0.453900
     22 N6           2.3070    -3.5930    -0.7350 nv         1 A3N      -1.065900
     23 H1          -1.2700    -4.3940     2.7020 ha         1 A3N       0.256000
     24 H2          -1.6990    -1.9490    -0.7030 h1         1 A3N       0.043700
     25 H3          -3.3940    -2.1070    -0.1870 h1         1 A3N       0.043700
     26 H4          -1.3590    -0.3950     1.0870 hn         1 A3N       0.433000
     27 H6          -2.0560     0.4100    -1.1340 h1         1 A3N       0.030200
     28 H7          -3.6600     0.6250    -0.4310 h1         1 A3N       0.030200
     29 H8          -2.8120     2.1970     1.2400 h1         1 A3N       0.112700
     30 H9          -2.9180     3.0770    -1.3380 h1         1 A3N       0.054700
     31 H10         -1.2460     4.8200    -0.4760 ho         1 A3N       0.522000
     32 H11         -0.9050     2.2140    -2.2200 h1         1 A3N       0.049700
     33 H12          0.5400     3.8890    -2.4670 ho         1 A3N       0.515000
     34 H13          0.9930     2.6100     0.0640 h2         1 A3N       0.126700
     35 H14          0.6910     0.8810    -2.8080 h5         1 A3N       0.059800
     36 H15          1.4540    -1.7240     3.1260 h5         1 A3N       0.047100
     37 H16          2.1030    -3.5760    -1.7310 hn         1 A3N       0.507000
     38 H17          2.3200    -4.5050    -0.2890 hn         1 A3N       0.507000
@<TRIPOS>BOND
     1     1     2 3   
     2     1    23 1   
     3     2     3 1   
     4     3     4 1   
     5     3    24 1   
     6     3    25 1   
     7     4     5 1   
     8     4    26 1   
     9     5     6 1   
    10     5    27 1   
    11     5    28 1   
    12     6     7 1   
    13     6     8 1   
    14     6    29 1   
    15     7    12 1   
    16     8     9 1   
    17     8    10 1   
    18     8    30 1   
    19     9    31 1   
    20    10    11 1   
    21    10    12 1   
    22    10    32 1   
    23    11    33 1   
    24    12    13 1   
    25    12    34 1   
    26    13    14 1   
    27    13    17 1   
    28    14    15 2   
    29    14    35 1   
    30    15    16 1   
    31    16    17 ar  
    32    16    21 ar  
    33    17    18 ar  
    34    18    19 ar  
    35    19    20 ar  
    36    19    36 1   
    37    20    21 ar  
    38    21    22 1   
    39    22    37 1   
    40    22    38 1   
@<TRIPOS>SUBSTRUCTURE
     1 A3N         1 TEMP              0 ****  ****    0 ROOT
