@<TRIPOS>MOLECULE
A3N
   38    40     1     0     0
SMALL
abcg2


@<TRIPOS>ATOM
      1 C13         -5.2070    -3.5180     0.9810 c1         1 A3N      -0.221000
      2 C12         -4.8650    -2.5750     0.3200 c1         1 A3N      -0.153100
      3 C11         -4.4340    -1.4330    -0.4810 c3         1 A3N       0.244900
      4 N5          -3.5970    -0.5340     0.2940 n7         1 A3N      -0.847400
      5 C10         -3.1650     0.6040    -0.4890 c3         1 A3N       0.144800
      6 C9          -2.3000     1.5310     0.3470 c5         1 A3N       0.163300
      7 O1          -1.1490     0.8280     0.8370 os         1 A3N      -0.449000
      8 C8          -1.7520     2.7120    -0.4400 c5         1 A3N       0.112300
      9 O2          -1.5050     3.7690     0.4500 oh         1 A3N      -0.700000
     10 C7          -0.4420     2.1310    -0.9760 c5         1 A3N       0.082300
     11 O3           0.5400     3.0690    -1.2980 oh         1 A3N      -0.692000
     12 C6           0.0180     1.2920     0.2160 c5         1 A3N       0.315300
     13 N3           0.8560     0.1760    -0.1430 na         1 A3N      -0.289300
     14 C5           0.5480    -0.8610    -0.9840 cc         1 A3N       0.402700
     15 N4           1.4930    -1.7450    -1.0810 nd         1 A3N      -0.550100
     16 C2           2.4860    -1.2760    -0.2600 ca         1 A3N      -0.104600
     17 C3           2.1080    -0.0850     0.3380 ca         1 A3N       0.146500
     18 N2           2.8280     0.6340     1.1950 nb         1 A3N      -0.216000
     19 C4           4.0020     0.0760     1.4350 ca         1 A3N       0.185900
     20 N1           4.5000    -1.0520     0.9350 nb         1 A3N      -0.303000
     21 C1           3.7640    -1.7640     0.0740 ca         1 A3N       0.453900
     22 N6           4.2600    -2.8930    -0.4320 nv         1 A3N      -1.065900
     23 H1          -5.5100    -4.3550     1.5680 ha         1 A3N       0.256000
     24 H2          -3.9440    -1.8040    -1.3930 h1         1 A3N       0.043700
     25 H3          -5.3200    -0.8860    -0.8160 h1         1 A3N       0.043700
     26 H4          -2.7870    -1.0450     0.6240 hn         1 A3N       0.433000
     27 H6          -2.6370     0.3130    -1.4130 h1         1 A3N       0.030200
     28 H7          -4.0490     1.1640    -0.8080 h1         1 A3N       0.030200
     29 H8          -2.8810     1.8700     1.2100 h1         1 A3N       0.112700
     30 H9          -2.4280     3.0120    -1.2520 h1         1 A3N       0.054700
     31 H10         -0.8780     4.3710     0.0320 ho         1 A3N       0.522000
     32 H11         -0.6690     1.4800    -1.8290 h1         1 A3N       0.049700
     33 H12          0.3840     3.3860    -2.1940 ho         1 A3N       0.515000
     34 H13          0.6130     1.9070     0.9000 h2         1 A3N       0.126700
     35 H14         -0.3980    -0.9150    -1.5010 h5         1 A3N       0.059800
     36 H15          4.6480     0.6030     2.1300 h5         1 A3N       0.047100
     37 H16          3.7270    -3.4560    -1.0700 hn         1 A3N       0.507000
     38 H17          5.1730    -3.2130    -0.1600 hn         1 A3N       0.507000
@<TRIPOS>BOND
     1     1     2 3   
     2     1    23 1   
     3     2     3 1   
     4     3     4 1   
     5     3    24 1   
     6     3    25 1   
     7     4     5 1   
     8     4    26 1   
     9     5     6 1   
    10     5    27 1   
    11     5    28 1   
    12     6     7 1   
    13     6     8 1   
    14     6    29 1   
    15     7    12 1   
    16     8     9 1   
    17     8    10 1   
    18     8    30 1   
    19     9    31 1   
    20    10    11 1   
    21    10    12 1   
    22    10    32 1   
    23    11    33 1   
    24    12    13 1   
    25    12    34 1   
    26    13    14 1   
    27    13    17 1   
    28    14    15 2   
    29    14    35 1   
    30    15    16 1   
    31    16    17 ar  
    32    16    21 ar  
    33    17    18 ar  
    34    18    19 ar  
    35    19    20 ar  
    36    19    36 1   
    37    20    21 ar  
    38    21    22 1   
    39    22    37 1   
    40    22    38 1   
@<TRIPOS>SUBSTRUCTURE
     1 A3N         1 TEMP              0 ****  ****    0 ROOT
