@<TRIPOS>MOLECULE
A3O
   79    83     1     0     0
SMALL
abcg2


@<TRIPOS>ATOM
      1 O1          52.1330   -38.3710    -2.1560 o          1 A3O      -0.480000
      2 C2          54.4360   -34.9650     0.2490 c6         1 A3O      -0.266700
      3 C4          52.9310   -36.2050    -1.4010 c6         1 A3O      -0.098000
      4 C5          54.1720   -36.5180    -2.2440 c6         1 A3O      -0.061400
      5 C6          55.2790   -35.4730    -2.0900 c6         1 A3O      -0.182400
      6 C14         51.9630   -37.3800    -1.4900 c          1 A3O       0.590100
      7 C17         57.0350   -35.2520     3.8800 ca         1 A3O      -0.117300
      8 C18         58.0870   -35.9040     3.2420 ca         1 A3O      -0.066000
      9 C19         59.3870   -35.4410     3.3790 ca         1 A3O      -0.119000
     10 C20         59.6530   -34.3200     4.1510 ca         1 A3O      -0.048000
     11 C26         57.8950   -30.3540     6.4600 ca         1 A3O      -0.013000
     12 C27         56.6680   -29.6860     6.4810 ca         1 A3O      -0.165000
     13 C28         56.4590   -28.5340     7.2250 ca         1 A3O      -0.023300
     14 C29         57.5340   -28.0190     7.9580 ca         1 A3O       0.255000
     15 C7          52.2070   -34.9550    -1.9210 c3         1 A3O      -0.086100
     16 C10         55.6240   -35.7760     3.7650 c3         1 A3O       0.155300
     17 C21         58.6090   -33.6430     4.7750 ca         1 A3O      -0.158600
     18 C22         57.3070   -34.1210     4.6360 ca         1 A3O      -0.059000
     19 C30         58.7550   -28.6790     7.9390 ca         1 A3O      -0.101000
     20 C31         58.9520   -29.8400     7.2080 ca         1 A3O      -0.127000
     21 C33         57.2070   -25.6110     8.3030 ca         1 A3O       0.389900
     22 C35         56.9950   -23.4190     8.7770 ca         1 A3O       0.150900
     23 C36         56.8380   -23.1170     7.4340 ca         1 A3O      -0.277000
     24 C37         56.8810   -24.1940     6.5550 cp         1 A3O       0.226500
     25 C39         55.1030   -27.8980     7.2450 c3         1 A3O      -0.047800
     26 C1          55.6300   -35.2280    -0.6490 c          1 A3O       0.579100
     27 C40         56.7310   -24.0270     5.0970 cp         1 A3O      -0.213500
     28 C41         56.0930   -22.9250     4.5360 ca         1 A3O      -0.052000
     29 C42         55.9830   -22.8380     3.1590 ca         1 A3O      -0.176000
     30 C43         56.5180   -23.8560     2.3850 ca         1 A3O       0.348900
     31 C45         57.2310   -24.9940     4.2220 ca         1 A3O       0.382900
     32 C3          53.3550   -36.0430     0.0720 c6         1 A3O      -0.051400
     33 N25         57.9580   -31.5140     5.6810 ns         1 A3O      -0.143000
     34 N32         57.3890   -26.8720     8.7660 nu         1 A3O      -0.941900
     35 N34         57.1740   -24.6460     9.2300 nb         1 A3O      -0.243000
     36 N38         57.0760   -25.4330     6.9930 nb         1 A3O      -0.240000
     37 N44         57.1340   -24.9140     2.9040 nb         1 A3O      -0.672000
     38 O           50.8840   -37.1860    -0.7460 os         1 A3O      -0.442100
     39 O4          56.7650   -35.2090    -0.2350 o          1 A3O      -0.499100
     40 O24         60.0280   -32.3370     6.1500 o          1 A3O      -0.582100
     41 H1          54.0170   -34.0080    -0.0850 hc         1 A3O       0.103700
     42 H2          53.9040   -36.5940    -3.3000 hc         1 A3O       0.064200
     43 H3          54.5740   -37.4910    -1.9520 hc         1 A3O       0.064200
     44 H4          56.1710   -35.7860    -2.6330 hc         1 A3O       0.074700
     45 H5          54.9650   -34.5160    -2.5200 hc         1 A3O       0.074700
     46 H6          57.8910   -36.7850     2.6430 ha         1 A3O       0.112000
     47 H7          60.1990   -35.9570     2.8840 ha         1 A3O       0.120000
     48 H8          60.6700   -33.9680     4.2600 ha         1 A3O       0.135000
     49 H9          55.8360   -30.0940     5.9170 ha         1 A3O       0.114000
     50 H10         51.3660   -34.6800    -1.2860 hc         1 A3O       0.048033
     51 H11         52.8720   -34.0940    -1.9670 hc         1 A3O       0.048033
     52 H12         51.8300   -35.1180    -2.9330 hc         1 A3O       0.048033
     53 H13         49.1010   -37.8520    -0.0820 h1         1 A3O       0.050367
     54 H14         49.4700   -38.3510    -1.7450 h1         1 A3O       0.050367
     55 H15         50.2760   -39.1500    -0.3780 h1         1 A3O       0.050367
     56 H16         54.9490   -35.1590     4.3590 h1         1 A3O       0.057200
     57 H17         55.5710   -36.7860     4.1730 h1         1 A3O       0.057200
     58 H18         56.4800   -33.6350     5.1420 ha         1 A3O       0.114000
     59 H19         59.5810   -28.2720     8.5100 ha         1 A3O       0.117000
     60 H20         59.9170   -30.3170     7.2200 ha         1 A3O       0.150000
     61 H21         56.9790   -22.6280     9.5190 h4         1 A3O       0.021100
     62 H22         56.7100   -22.0960     7.1070 ha         1 A3O       0.134000
     63 H23         54.8380   -27.5580     8.2460 hc         1 A3O       0.048033
     64 H24         55.0700   -27.0260     6.5910 hc         1 A3O       0.048033
     65 H25         54.3400   -28.5980     6.9090 hc         1 A3O       0.048033
     66 H26         55.6670   -22.1490     5.1580 ha         1 A3O       0.119000
     67 H27         55.4860   -21.9990     2.6910 ha         1 A3O       0.124000
     68 H28         56.4460   -23.8180     1.3040 h4         1 A3O       0.019100
     69 H29         57.7390   -25.8650     4.6180 h4         1 A3O       0.045100
     70 H30         52.4980   -35.7780     0.6920 hc         1 A3O       0.058700
     71 H31         53.7260   -37.0080     0.4310 hc         1 A3O       0.058700
     72 H32         55.1490   -36.7480     1.9540 hn         1 A3O       0.316500
     73 H33         57.1420   -31.6790     5.1130 hn         1 A3O       0.161000
     74 H34         57.6620   -26.9410     9.7350 hn         1 A3O       0.512000
     75 C16         54.8630   -34.7440     1.6910 c          1 A3O       0.622100
     76 C15         49.8840   -38.2030    -0.7480 c3         1 A3O       0.150900
     77 N2          55.1510   -35.8470     2.4010 ns         1 A3O      -0.498900
     78 O2          54.9280   -33.6220     2.1690 o          1 A3O      -0.591100
     79 C23         58.9430   -32.4450     5.6060 c          1 A3O       0.624700
@<TRIPOS>BOND
     1     1     6 2   
     2     2    26 1   
     3     2    32 1   
     4     2    41 1   
     5     2    75 1   
     6     3     4 1   
     7     3     6 1   
     8     3    15 1   
     9     3    32 1   
    10     4     5 1   
    11     4    42 1   
    12     4    43 1   
    13     5    26 1   
    14     5    44 1   
    15     5    45 1   
    16     6    38 1   
    17     7     8 ar  
    18     7    16 1   
    19     7    18 ar  
    20     8     9 ar  
    21     8    46 1   
    22     9    10 ar  
    23     9    47 1   
    24    10    17 ar  
    25    10    48 1   
    26    11    12 ar  
    27    11    20 ar  
    28    11    33 1   
    29    12    13 ar  
    30    12    49 1   
    31    13    14 ar  
    32    13    25 1   
    33    14    19 ar  
    34    14    34 1   
    35    15    50 1   
    36    15    51 1   
    37    15    52 1   
    38    16    56 1   
    39    16    57 1   
    40    16    77 1   
    41    17    18 ar  
    42    17    79 1   
    43    18    58 1   
    44    19    20 ar  
    45    19    59 1   
    46    20    60 1   
    47    21    34 1   
    48    21    35 ar  
    49    21    36 ar  
    50    22    23 ar  
    51    22    35 ar  
    52    22    61 1   
    53    23    24 ar  
    54    23    62 1   
    55    24    27 1   
    56    24    36 ar  
    57    25    63 1   
    58    25    64 1   
    59    25    65 1   
    60    26    39 2   
    61    27    28 ar  
    62    27    31 ar  
    63    28    29 ar  
    64    28    66 1   
    65    29    30 ar  
    66    29    67 1   
    67    30    37 ar  
    68    30    68 1   
    69    31    37 ar  
    70    31    69 1   
    71    32    70 1   
    72    32    71 1   
    73    33    73 1   
    74    33    79 1   
    75    34    74 1   
    76    38    76 1   
    77    40    79 2   
    78    53    76 1   
    79    54    76 1   
    80    55    76 1   
    81    72    77 1   
    82    75    77 1   
    83    75    78 2   
@<TRIPOS>SUBSTRUCTURE
     1 A3O         1 TEMP              0 ****  ****    0 ROOT
