@<TRIPOS>MOLECULE
A3O
   79    83     1     0     0
SMALL
No Charge or Current Charge


@<TRIPOS>ATOM
      1 O1          53.4910   -33.7660    -2.4070 o          1 A3O      -0.480000
      2 C2          53.3930   -33.6620     2.5140 c6         1 A3O      -0.266700
      3 C4          53.6860   -33.1060    -0.0420 c6         1 A3O      -0.098000
      4 C5          54.7050   -31.9900     0.3800 c6         1 A3O      -0.061400
      5 C6          54.4600   -31.4140     1.8020 c6         1 A3O      -0.182400
      6 C14         54.1700   -33.7490    -1.3870 c          1 A3O       0.590100
      7 C17         55.6860   -36.7880     5.0790 ca         1 A3O      -0.117300
      8 C18         56.4770   -37.9460     5.1770 ca         1 A3O      -0.066000
      9 C19         57.7750   -37.8690     5.7060 ca         1 A3O      -0.119000
     10 C20         58.2950   -36.6350     6.1310 ca         1 A3O      -0.048000
     11 C26         57.5560   -31.6210     6.4360 ca         1 A3O      -0.013000
     12 C27         56.4470   -30.7610     6.3710 ca         1 A3O      -0.165000
     13 C28         56.5930   -29.3640     6.4750 ca         1 A3O      -0.023300
     14 C29         57.8930   -28.8100     6.6320 ca         1 A3O       0.255000
     15 C7          52.2450   -32.5190    -0.2510 c3         1 A3O      -0.086100
     16 C10         54.2800   -36.8640     4.4920 c3         1 A3O       0.155300
     17 C21         57.5200   -35.4560     6.0380 ca         1 A3O      -0.158600
     18 C22         56.2050   -35.5540     5.5210 ca         1 A3O      -0.059000
     19 C30         58.9970   -29.6750     6.7280 ca         1 A3O      -0.101000
     20 C31         58.8380   -31.0680     6.6250 ca         1 A3O      -0.127000
     21 C33         57.8230   -26.3920     5.8240 ca         1 A3O       0.389900
     22 C35         57.8900   -24.1520     5.3950 ca         1 A3O       0.150900
     23 C36         57.2550   -24.3790     4.1620 ca         1 A3O      -0.277000
     24 C37         56.9190   -25.7100     3.8130 cp         1 A3O       0.226500
     25 C39         55.3260   -28.5090     6.4420 c3         1 A3O      -0.047800
     26 C1          54.3520   -32.5230     2.8510 c          1 A3O       0.579100
     27 C40         56.2300   -26.0870     2.5320 cp         1 A3O      -0.213500
     28 C41         55.6290   -25.1240     1.6810 ca         1 A3O      -0.052000
     29 C42         54.9990   -25.5500     0.5020 ca         1 A3O      -0.176000
     30 C43         54.9740   -26.9160     0.1910 ca         1 A3O       0.348900
     31 C45         56.1410   -27.4460     2.1210 ca         1 A3O       0.382900
     32 C3          53.7150   -34.2040     1.0810 c6         1 A3O      -0.051400
     33 N25         57.3190   -33.0110     6.2650 ns         1 A3O      -0.143000
     34 N32         58.1340   -27.4290     6.6920 nu         1 A3O      -0.941900
     35 N34         58.1760   -25.1640     6.2340 nb         1 A3O      -0.243000
     36 N38         57.2270   -26.7090     4.6620 nb         1 A3O      -0.240000
     37 N44         55.5330   -27.8560     0.9830 nb         1 A3O      -0.672000
     38 O           55.4280   -34.2980    -1.3200 os         1 A3O      -0.442100
     39 O4          55.0470   -32.5190     3.8570 o          1 A3O      -0.499100
     40 O24         59.2380   -34.0690     6.9680 o          1 A3O      -0.582100
     41 H1          52.4120   -33.1780     2.4660 hc         1 A3O       0.103700
     42 H2          54.6880   -31.1720    -0.3540 hc         1 A3O       0.064200
     43 H3          55.7300   -32.3880     0.3520 hc         1 A3O       0.064200
     44 H4          55.2300   -30.6890     2.0950 hc         1 A3O       0.074700
     45 H5          53.4880   -30.9080     1.7700 hc         1 A3O       0.074700
     46 H6          56.0900   -38.9070     4.8430 ha         1 A3O       0.112000
     47 H7          58.3830   -38.7670     5.7800 ha         1 A3O       0.120000
     48 H8          59.3090   -36.5990     6.5250 ha         1 A3O       0.135000
     49 H9          55.4530   -31.1830     6.2360 ha         1 A3O       0.114000
     50 H10         51.5320   -33.3070    -0.5250 hc         1 A3O       0.048033
     51 H11         51.8470   -32.0250     0.6410 hc         1 A3O       0.048033
     52 H12         52.2340   -31.7720    -1.0540 hc         1 A3O       0.048033
     53 H13         56.9730   -35.3090    -2.3040 h1         1 A3O       0.050367
     54 H14         55.3360   -35.7530    -2.8310 h1         1 A3O       0.050367
     55 H15         56.0420   -34.1930    -3.3250 h1         1 A3O       0.050367
     56 H16         53.5420   -36.7490     5.2960 h1         1 A3O       0.057200
     57 H17         54.1190   -37.8480     4.0320 h1         1 A3O       0.057200
     58 H18         55.5710   -34.6750     5.4500 ha         1 A3O       0.114000
     59 H19         59.9950   -29.2630     6.8530 ha         1 A3O       0.117000
     60 H20         59.7240   -31.6940     6.6680 ha         1 A3O       0.150000
     61 H21         58.1730   -23.1490     5.7130 h4         1 A3O       0.021100
     62 H22         57.0450   -23.5420     3.5060 ha         1 A3O       0.134000
     63 H23         55.4470   -27.5680     6.9910 hc         1 A3O       0.048033
     64 H24         55.0400   -28.2690     5.4110 hc         1 A3O       0.048033
     65 H25         54.4820   -29.0370     6.9010 hc         1 A3O       0.048033
     66 H26         55.6360   -24.0650     1.9240 ha         1 A3O       0.119000
     67 H27         54.5300   -24.8330    -0.1660 ha         1 A3O       0.124000
     68 H28         54.4900   -27.2710    -0.7180 h4         1 A3O       0.019100
     69 H29         56.5780   -28.2430     2.7220 h4         1 A3O       0.045100
     70 H30         53.0040   -35.0030     0.8230 hc         1 A3O       0.058700
     71 H31         54.7070   -34.6780     1.0960 hc         1 A3O       0.058700
     72 H32         54.5970   -35.9240     2.6010 hn         1 A3O       0.316500
     73 H33         56.4090   -33.2180     5.8760 hn         1 A3O       0.161000
     74 H34         58.8420   -27.1570     7.3750 hn         1 A3O       0.512000
     75 C16         53.3460   -34.6870     3.6420 c          1 A3O       0.622100
     76 C15         55.9680   -34.9170    -2.5030 c3         1 A3O       0.150900
     77 N2          54.0780   -35.8390     3.4650 ns         1 A3O      -0.498900
     78 O2          52.6720   -34.4920     4.6420 o          1 A3O      -0.591100
     79 C23         58.1190   -34.1290     6.4700 c          1 A3O       0.624700
@<TRIPOS>BOND
     1     1     6 2   
     2     2    26 1   
     3     2    32 1   
     4     2    41 1   
     5     2    75 1   
     6     3     4 1   
     7     3     6 1   
     8     3    15 1   
     9     3    32 1   
    10     4     5 1   
    11     4    42 1   
    12     4    43 1   
    13     5    26 1   
    14     5    44 1   
    15     5    45 1   
    16     6    38 1   
    17     7     8 ar  
    18     7    16 1   
    19     7    18 ar  
    20     8     9 ar  
    21     8    46 1   
    22     9    10 ar  
    23     9    47 1   
    24    10    17 ar  
    25    10    48 1   
    26    11    12 ar  
    27    11    20 ar  
    28    11    33 1   
    29    12    13 ar  
    30    12    49 1   
    31    13    14 ar  
    32    13    25 1   
    33    14    19 ar  
    34    14    34 1   
    35    15    50 1   
    36    15    51 1   
    37    15    52 1   
    38    16    56 1   
    39    16    57 1   
    40    16    77 1   
    41    17    18 ar  
    42    17    79 1   
    43    18    58 1   
    44    19    20 ar  
    45    19    59 1   
    46    20    60 1   
    47    21    34 1   
    48    21    35 ar  
    49    21    36 ar  
    50    22    23 ar  
    51    22    35 ar  
    52    22    61 1   
    53    23    24 ar  
    54    23    62 1   
    55    24    27 1   
    56    24    36 ar  
    57    25    63 1   
    58    25    64 1   
    59    25    65 1   
    60    26    39 2   
    61    27    28 ar  
    62    27    31 ar  
    63    28    29 ar  
    64    28    66 1   
    65    29    30 ar  
    66    29    67 1   
    67    30    37 ar  
    68    30    68 1   
    69    31    37 ar  
    70    31    69 1   
    71    32    70 1   
    72    32    71 1   
    73    33    73 1   
    74    33    79 1   
    75    34    74 1   
    76    38    76 1   
    77    40    79 2   
    78    53    76 1   
    79    54    76 1   
    80    55    76 1   
    81    72    77 1   
    82    75    77 1   
    83    75    78 2   
@<TRIPOS>SUBSTRUCTURE
     1 A3O         1 TEMP              0 ****  ****    0 ROOT
