@<TRIPOS>MOLECULE
A3Q
   27    29     1     0     0
SMALL
No Charge or Current Charge


@<TRIPOS>ATOM
      1 C1           2.7210     1.0470    -1.3740 ca         1 A3Q      -0.071000
      2 C2           1.3910     0.6080    -1.2700 ca         1 A3Q      -0.123000
      3 C3           1.0130    -0.3460    -0.2960 cp         1 A3Q      -0.011000
      4 C4           2.0150    -0.8690     0.5560 ca         1 A3Q      -0.190000
      5 C5           3.3460    -0.4310     0.4540 ca         1 A3Q       0.137100
      6 C6           3.6980     0.5280    -0.5080 ca         1 A3Q      -0.134000
      7 C7          -0.3930    -0.8290    -0.1980 cp         1 A3Q       0.052000
      8 C8          -0.6990    -2.1990    -0.3740 ca         1 A3Q      -0.179000
      9 C9          -2.0340    -2.6410    -0.3100 ca         1 A3Q       0.357900
     10 N10         -3.0770    -1.8070    -0.0770 nb         1 A3Q      -0.673000
     11 C11         -1.5050     0.0080     0.0610 ca         1 A3Q      -0.092800
     12 C12         -2.7880    -0.5060     0.1030 ca         1 A3Q       0.360500
     13 N13         -3.6530     0.5300     0.3690 na         1 A3Q      -0.311400
     14 C14         -2.9670     1.7480     0.5330 cc         1 A3Q      -0.098100
     15 C15         -1.6290     1.4310     0.3490 cd         1 A3Q      -0.051900
     16 C16         -0.5970     2.3990     0.4940 ch         1 A3Q       0.321700
     17 N17          0.2260     3.2170     0.6270 n1         1 A3Q      -0.464000
     18 O18          4.2990    -0.9360     1.2860 oh         1 A3Q      -0.531100
     19 H1           2.9950     1.7850    -2.1250 ha         1 A3Q       0.119000
     20 H2           0.6420     1.0070    -1.9510 ha         1 A3Q       0.123000
     21 H3           1.7430    -1.6120     1.3010 ha         1 A3Q       0.115000
     22 H4           4.7290     0.8650    -0.5870 ha         1 A3Q       0.130000
     23 H5           0.0920    -2.9160    -0.5740 ha         1 A3Q       0.129000
     24 H6          -2.2760    -3.6930    -0.4520 h4         1 A3Q       0.024100
     25 H7          -4.6560     0.4060     0.4440 hn         1 A3Q       0.368000
     26 H8          -3.4550     2.6900     0.7700 h4         1 A3Q       0.228000
     27 H9           3.8750    -1.5850     1.8860 ho         1 A3Q       0.463000
@<TRIPOS>BOND
     1     1     2 ar  
     2     1     6 ar  
     3     1    19 1   
     4     2     3 ar  
     5     2    20 1   
     6     3     4 ar  
     7     3     7 1   
     8     4     5 ar  
     9     4    21 1   
    10     5     6 ar  
    11     5    18 1   
    12     6    22 1   
    13     7     8 ar  
    14     7    11 ar  
    15     8     9 ar  
    16     8    23 1   
    17     9    10 ar  
    18     9    24 1   
    19    10    12 ar  
    20    11    12 ar  
    21    11    15 1   
    22    12    13 1   
    23    13    14 1   
    24    13    25 1   
    25    14    15 2   
    26    14    26 1   
    27    15    16 1   
    28    16    17 3   
    29    18    27 1   
@<TRIPOS>SUBSTRUCTURE
     1 A3Q         1 TEMP              0 ****  ****    0 ROOT
