@<TRIPOS>MOLECULE
A3Q
   27    29     1     0     0
SMALL
bcc


@<TRIPOS>ATOM
      1 C1           2.6850     1.0630    -1.2830 ca         1 A3Q      -0.089000
      2 C2           1.3630     0.6610    -1.1710 ca         1 A3Q      -0.141000
      3 C3           1.0250    -0.3390    -0.2640 cp         1 A3Q      -0.011000
      4 C4           2.0160    -0.9270     0.5170 ca         1 A3Q      -0.208000
      5 C5           3.3390    -0.5140     0.4030 ca         1 A3Q       0.137100
      6 C6           3.6750     0.4880    -0.5050 ca         1 A3Q      -0.152000
      7 C7          -0.3700    -0.8050    -0.1560 cp         1 A3Q       0.052000
      8 C8          -0.6870    -2.1510    -0.2820 ca         1 A3Q      -0.262300
      9 C9          -2.0140    -2.5830    -0.2300 ca         1 A3Q       0.423200
     10 N10         -3.0490    -1.7780    -0.0580 nb         1 A3Q      -0.673000
     11 C11         -1.4460     0.0640     0.0530 ca         1 A3Q      -0.158100
     12 C12         -2.7370    -0.5030     0.0810 ca         1 A3Q       0.425800
     13 N13         -3.6340     0.5050     0.3010 na         1 A3Q      -0.261100
     14 C14         -2.9800     1.6760     0.4350 cc         1 A3Q      -0.048100
     15 C15         -1.6270     1.4680     0.2950 cd         1 A3Q      -0.051900
     16 C16         -0.6570     2.4820     0.4540 ch         1 A3Q       0.232500
     17 N17          0.1140     3.3260     0.6110 n1         1 A3Q      -0.374800
     18 O18          4.3310    -1.0450     1.1440 oh         1 A3Q      -0.492100
     19 H1           2.9500     1.8370    -1.9920 ha         1 A3Q       0.137000
     20 H2           0.6070     1.1090    -1.8010 ha         1 A3Q       0.141000
     21 H3           1.7470    -1.6980     1.2320 ha         1 A3Q       0.133000
     22 H4           4.7040     0.8080    -0.5950 ha         1 A3Q       0.148000
     23 H5           0.0930    -2.8800    -0.4550 ha         1 A3Q       0.147000
     24 H6          -2.2350    -3.6380    -0.3440 h4         1 A3Q       0.024100
     25 H7          -4.6300     0.3870     0.3680 hn         1 A3Q       0.317700
     26 H8          -3.5060     2.5940     0.6340 h4         1 A3Q       0.178000
     27 H9           3.9780    -1.7090     1.7420 ho         1 A3Q       0.424000
@<TRIPOS>BOND
     1     1     2 ar  
     2     1     6 ar  
     3     1    19 1   
     4     2     3 ar  
     5     2    20 1   
     6     3     4 ar  
     7     3     7 1   
     8     4     5 ar  
     9     4    21 1   
    10     5     6 ar  
    11     5    18 1   
    12     6    22 1   
    13     7     8 ar  
    14     7    11 ar  
    15     8     9 ar  
    16     8    23 1   
    17     9    10 ar  
    18     9    24 1   
    19    10    12 ar  
    20    11    12 ar  
    21    11    15 1   
    22    12    13 1   
    23    13    14 1   
    24    13    25 1   
    25    14    15 2   
    26    14    26 1   
    27    15    16 1   
    28    16    17 3   
    29    18    27 1   
@<TRIPOS>SUBSTRUCTURE
     1 A3Q         1 TEMP              0 ****  ****    0 ROOT
