@<TRIPOS>MOLECULE
A3R
   56    59     1     0     0
SMALL
No Charge or Current Charge


@<TRIPOS>ATOM
      1 C3N         -4.4370     2.5400    -1.7440 c5         1 A3R      -0.112400
      2 C2N         -4.3790     1.2990    -2.6850 c5         1 A3R       0.114300
      3 O2N         -3.8740     1.6410    -3.9780 oh         1 A3R      -0.665000
      4 C1N         -3.4490     0.3090    -1.8900 c5         1 A3R       0.103800
      5 N4N         -3.1060     1.0030    -0.6260 n7         1 A3R      -0.789400
      6 C4N         -4.2490     1.9000    -0.3440 c5         1 A3R       0.146500
      7 C5N         -5.5340     1.1740     0.2080 c3         1 A3R       0.232600
      8 O5N         -5.2520     0.2480     1.2790 os         1 A3R      -0.571400
      9 PB          -4.4560     0.6470     2.6240 p5         1 A3R       1.456800
     10 O2B         -4.9580    -0.2120     3.7380 o          1 A3R      -0.855000
     11 O1B         -4.6240     2.1040     2.9070 o          1 A3R      -0.855000
     12 O3A         -3.0190     0.2610     2.1020 os         1 A3R      -0.682800
     13 PA          -1.9810     0.0460     3.2690 p5         1 A3R       1.457800
     14 O1A         -1.9860     1.1170     4.3100 o          1 A3R      -0.851500
     15 O2A         -2.0210    -1.3270     3.8570 o          1 A3R      -0.851500
     16 O5          -0.6580     0.2110     2.3660 os         1 A3R      -0.557400
     17 C5          -0.2660    -0.8560     1.4900 c3         1 A3R       0.226600
     18 C4           0.3400    -0.2530     0.1970 c5         1 A3R       0.158300
     19 O4           1.6120     0.3790     0.4700 os         1 A3R      -0.403000
     20 C3           0.7150    -1.3000    -0.8910 c5         1 A3R       0.082300
     21 O3          -0.4180    -1.8410    -1.5920 oh         1 A3R      -0.696000
     22 C2           1.5800    -0.4060    -1.8260 c5         1 A3R       0.089300
     23 O2           0.7050     0.3510    -2.6730 oh         1 A3R      -0.707000
     24 C1           2.3510     0.4810    -0.7720 c5         1 A3R       0.316300
     25 N9           3.7470     0.1380    -0.4960 na         1 A3R      -0.300300
     26 C8           4.3180    -1.1380    -0.5830 cc         1 A3R       0.452700
     27 N7           5.6360    -1.1060    -0.2950 nd         1 A3R      -0.580100
     28 C7           5.8740     0.2450    -0.0230 ca         1 A3R      -0.088600
     29 C9           4.7390     1.0070    -0.1390 ca         1 A3R       0.101500
     30 N3           4.7390     2.3370     0.0820 nb         1 A3R      -0.210000
     31 C10          5.9340     2.8740     0.4310 ca         1 A3R       0.155900
     32 N1           7.1090     2.2130     0.5750 nb         1 A3R      -0.324000
     33 C6           7.0740     0.8920     0.3420 ca         1 A3R       0.439900
     34 N6           8.2530     0.2300     0.4890 nv         1 A3R      -1.077900
     35 H1          -3.6260     3.2470    -1.9580 hc         1 A3R       0.047200
     36 H2          -5.3790     3.0920    -1.8340 hc         1 A3R       0.047200
     37 H3          -5.3800     0.8560    -2.7860 h1         1 A3R       0.020700
     38 H4          -3.8460     0.8100    -4.5020 ho         1 A3R       0.424000
     39 H5          -3.9910    -0.6220    -1.6750 h1         1 A3R       0.040200
     40 H6          -2.5410     0.0410    -2.4470 h1         1 A3R       0.040200
     41 H7          -2.9980     0.3470     0.1640 hn         1 A3R       0.426000
     42 H9          -3.9620     2.6670     0.3890 h1         1 A3R       0.070700
     43 H10         -6.2490     1.9360     0.5440 h1         1 A3R       0.011200
     44 H11         -6.0190     0.6250    -0.6090 h1         1 A3R       0.011200
     45 H14          0.4770    -1.5010     1.9760 h1         1 A3R       0.018700
     46 H15         -1.1280    -1.4770     1.2130 h1         1 A3R       0.018700
     47 H16         -0.3550     0.4990    -0.2000 h1         1 A3R       0.094700
     48 H17          1.3180    -2.1060    -0.4480 h1         1 A3R       0.052700
     49 H18         -0.2210    -2.7870    -1.7960 ho         1 A3R       0.495000
     50 H19          2.2670    -1.0070    -2.4370 h1         1 A3R       0.054700
     51 H20         -0.1310    -0.1810    -2.6600 ho         1 A3R       0.516000
     52 H21          2.3590     1.5240    -1.1150 h2         1 A3R       0.108700
     53 H22          3.7460    -2.0200    -0.8470 h5         1 A3R       0.114800
     54 H23          5.9510     3.9460     0.6150 h5         1 A3R       0.030100
     55 H24          8.9870     0.6810     1.0280 hn         1 A3R       0.499500
     56 H25          8.2090    -0.7850     0.5360 hn         1 A3R       0.499500
@<TRIPOS>BOND
     1     1     2 1   
     2     1     6 1   
     3     1    35 1   
     4     1    36 1   
     5     2     3 1   
     6     2     4 1   
     7     2    37 1   
     8     3    38 1   
     9     4     5 1   
    10     4    39 1   
    11     4    40 1   
    12     5     6 1   
    13     5    41 1   
    14     6     7 1   
    15     6    42 1   
    16     7     8 1   
    17     7    43 1   
    18     7    44 1   
    19     8     9 1   
    20     9    10 1   
    21     9    11 1   
    22     9    12 1   
    23    12    13 1   
    24    13    14 1   
    25    13    15 1   
    26    13    16 1   
    27    16    17 1   
    28    17    18 1   
    29    17    45 1   
    30    17    46 1   
    31    18    19 1   
    32    18    20 1   
    33    18    47 1   
    34    19    24 1   
    35    20    21 1   
    36    20    22 1   
    37    20    48 1   
    38    21    49 1   
    39    22    23 1   
    40    22    24 1   
    41    22    50 1   
    42    23    51 1   
    43    24    25 1   
    44    24    52 1   
    45    25    26 1   
    46    25    29 1   
    47    26    27 2   
    48    26    53 1   
    49    27    28 1   
    50    28    29 ar  
    51    28    33 ar  
    52    29    30 ar  
    53    30    31 ar  
    54    31    32 ar  
    55    31    54 1   
    56    32    33 ar  
    57    33    34 1   
    58    34    55 1   
    59    34    56 1   
@<TRIPOS>SUBSTRUCTURE
     1 A3R         1 TEMP              0 ****  ****    0 ROOT
