@<TRIPOS>MOLECULE
A3R
   56    59     1     0     0
SMALL
abcg2


@<TRIPOS>ATOM
      1 C3N         -7.8220     1.6520    -0.5360 c5         1 A3R      -0.112400
      2 C2N         -8.2100     0.7580    -1.7220 c5         1 A3R       0.114300
      3 O2N         -9.2990     1.3050    -2.4310 oh         1 A3R      -0.665000
      4 C1N         -6.9010     0.6640    -2.5180 c5         1 A3R       0.103800
      5 N4N         -5.8370     0.6800    -1.5310 n7         1 A3R      -0.789400
      6 C4N         -6.2740     1.6680    -0.5410 c5         1 A3R       0.146500
      7 C5N         -5.7080     1.4110     0.8360 c3         1 A3R       0.232600
      8 O5N         -4.2960     1.4270     0.7900 os         1 A3R      -0.571400
      9 PB          -3.4970     1.4130     2.2250 p5         1 A3R       1.456800
     10 O2B         -3.9680     0.2600     3.0580 o          1 A3R      -0.855000
     11 O1B         -3.4700     2.7990     2.7880 o          1 A3R      -0.855000
     12 O3A         -1.9990     1.1180     1.6280 os         1 A3R      -0.682800
     13 PA          -1.3630    -0.3760     1.3840 p5         1 A3R       1.457800
     14 O1A         -0.7960    -0.9140     2.6610 o          1 A3R      -0.851500
     15 O2A         -2.2680    -1.2190     0.5430 o          1 A3R      -0.851500
     16 O5          -0.1350     0.2020     0.4470 os         1 A3R      -0.557400
     17 C5           0.8420    -0.7280     0.0370 c3         1 A3R       0.226600
     18 C4           1.7210    -0.1020    -1.0150 c5         1 A3R       0.158300
     19 O4           2.4390     1.0110    -0.4790 os         1 A3R      -0.403000
     20 C3           2.7970    -1.0510    -1.5340 c5         1 A3R       0.082300
     21 O3           2.2880    -1.8450    -2.5660 oh         1 A3R      -0.696000
     22 C2           3.8870    -0.0700    -1.9770 c5         1 A3R       0.089300
     23 O2           3.5600     0.5380    -3.1960 oh         1 A3R      -0.707000
     24 C1           3.7710     0.9970    -0.8910 c5         1 A3R       0.316300
     25 N9           4.6270     0.6850     0.2510 na         1 A3R      -0.300300
     26 C8           4.2720     0.2600     1.5020 cc         1 A3R       0.452700
     27 N7           5.2870     0.1040     2.3010 nd         1 A3R      -0.580100
     28 C7           6.3740     0.4500     1.5430 ca         1 A3R      -0.088600
     29 C9           5.9840     0.8170     0.2660 ca         1 A3R       0.101500
     30 N3           6.7790     1.2130    -0.7270 nb         1 A3R      -0.210000
     31 C10          8.0490     1.2200    -0.3580 ca         1 A3R       0.155900
     32 N1           8.5680     0.8950     0.8230 nb         1 A3R      -0.324000
     33 C6           7.7560     0.5000     1.8100 ca         1 A3R       0.439900
     34 N6           8.2780     0.1670     2.9910 nv         1 A3R      -1.077900
     35 H1          -8.2270     2.6570    -0.6680 hc         1 A3R       0.047200
     36 H2          -8.2190     1.2620     0.4030 hc         1 A3R       0.047200
     37 H3          -8.4600    -0.2450    -1.3510 h1         1 A3R       0.020700
     38 H4          -9.5650     0.6710    -3.1050 ho         1 A3R       0.424000
     39 H5          -6.8380    -0.2220    -3.1510 h1         1 A3R       0.040200
     40 H6          -6.8150     1.5440    -3.1660 h1         1 A3R       0.040200
     41 H7          -5.7840    -0.2330    -1.0910 hn         1 A3R       0.426000
     42 H9          -5.9340     2.6530    -0.8820 h1         1 A3R       0.070700
     43 H10         -6.0960     2.1790     1.5180 h1         1 A3R       0.011200
     44 H11         -6.0730     0.4420     1.2040 h1         1 A3R       0.011200
     45 H14          1.4540    -1.0620     0.8840 h1         1 A3R       0.018700
     46 H15          0.3890    -1.6250    -0.4040 h1         1 A3R       0.018700
     47 H16          1.0990     0.2420    -1.8510 h1         1 A3R       0.094700
     48 H17          3.1850    -1.6620    -0.7080 h1         1 A3R       0.052700
     49 H18          2.8720    -2.5990    -2.6970 ho         1 A3R       0.495000
     50 H19          4.8830    -0.5290    -2.0020 h1         1 A3R       0.054700
     51 H20          3.2050    -0.1410    -3.7830 ho         1 A3R       0.516000
     52 H21          4.0690     1.9820    -1.2590 h2         1 A3R       0.108700
     53 H22          3.2440     0.0830     1.7770 h5         1 A3R       0.114800
     54 H23          8.7630     1.5370    -1.1100 h5         1 A3R       0.030100
     55 H24          9.2670     0.2510     3.1490 hn         1 A3R       0.499500
     56 H25          7.6910    -0.1020     3.7600 hn         1 A3R       0.499500
@<TRIPOS>BOND
     1     1     2 1   
     2     1     6 1   
     3     1    35 1   
     4     1    36 1   
     5     2     3 1   
     6     2     4 1   
     7     2    37 1   
     8     3    38 1   
     9     4     5 1   
    10     4    39 1   
    11     4    40 1   
    12     5     6 1   
    13     5    41 1   
    14     6     7 1   
    15     6    42 1   
    16     7     8 1   
    17     7    43 1   
    18     7    44 1   
    19     8     9 1   
    20     9    10 1   
    21     9    11 1   
    22     9    12 1   
    23    12    13 1   
    24    13    14 1   
    25    13    15 1   
    26    13    16 1   
    27    16    17 1   
    28    17    18 1   
    29    17    45 1   
    30    17    46 1   
    31    18    19 1   
    32    18    20 1   
    33    18    47 1   
    34    19    24 1   
    35    20    21 1   
    36    20    22 1   
    37    20    48 1   
    38    21    49 1   
    39    22    23 1   
    40    22    24 1   
    41    22    50 1   
    42    23    51 1   
    43    24    25 1   
    44    24    52 1   
    45    25    26 1   
    46    25    29 1   
    47    26    27 2   
    48    26    53 1   
    49    27    28 1   
    50    28    29 ar  
    51    28    33 ar  
    52    29    30 ar  
    53    30    31 ar  
    54    31    32 ar  
    55    31    54 1   
    56    32    33 ar  
    57    33    34 1   
    58    34    55 1   
    59    34    56 1   
@<TRIPOS>SUBSTRUCTURE
     1 A3R         1 TEMP              0 ****  ****    0 ROOT
