@<TRIPOS>MOLECULE
A3S
   44    46     1     0     0
SMALL
abcg2


@<TRIPOS>ATOM
      1 O5           0.4660    -3.7060    -0.3550 oh         1 A3S      -0.709000
      2 C5           0.7300    -2.7310     0.6210 c3         1 A3S       0.140600
      3 C4           1.3310    -1.5200    -0.0690 c5         1 A3S       0.141300
      4 O4           0.4650    -1.0100    -1.0840 os         1 A3S      -0.424000
      5 C1          -0.3410    -0.0090    -0.5670 c5         1 A3S       0.270300
      6 N9          -1.7360    -0.4370    -0.5720 na         1 A3S      -0.307300
      7 C9          -2.7550     0.3050    -0.0660 ca         1 A3S       0.110500
      8 N3          -2.6750     1.4770     0.5710 nb         1 A3S      -0.270000
      9 C2          -3.8690     1.9180     0.9350 ca         1 A3S       0.194900
     10 N1          -5.0490     1.3430     0.7370 nb         1 A3S      -0.303000
     11 C6          -5.1120     0.1640     0.1030 ca         1 A3S       0.456900
     12 N6          -6.2990    -0.4140    -0.0780 nv         1 A3S      -1.057900
     13 C7          -3.9060    -0.4160    -0.3340 ca         1 A3S      -0.092600
     14 N7          -3.6010    -1.5810    -0.9880 nc         1 A3S      -0.560100
     15 C8          -2.3040    -1.5560    -1.1130 cd         1 A3S       0.427700
     16 C10          0.1420     0.2890     0.8740 c5         1 A3S       0.128300
     17 O2           0.1530     1.6440     1.1920 oh         1 A3S      -0.721000
     18 C3           1.5370    -0.3380     0.8820 c5         1 A3S       0.092700
     19 N8           2.5130     0.6020     0.3850 ns         1 A3S      -0.489900
     20 N            5.9330     1.6750     0.6910 n8         1 A3S      -0.969200
     21 CA           4.7370     1.4640    -0.0950 c3         1 A3S       0.093500
     22 CB           5.0880     1.0790    -1.5290 c3         1 A3S       0.172600
     23 OG           5.7590     2.1520    -2.1380 oh         1 A3S      -0.642000
     24 C            3.8330     0.3650     0.4640 c          1 A3S       0.550100
     25 O            4.2900    -0.6730     0.9200 o          1 A3S      -0.613100
     26 H5          -0.0230    -4.4210     0.0600 ho         1 A3S       0.509000
     27 H5'1         1.4500    -3.0820     1.3730 h1         1 A3S       0.030200
     28 H5'2        -0.1810    -2.4490     1.1640 h1         1 A3S       0.030200
     29 H4           2.2600    -1.8150    -0.5610 h1         1 A3S       0.114700
     30 H1          -0.2720     0.8870    -1.1940 h2         1 A3S       0.097700
     31 H2          -3.8880     2.8650     1.4610 h5         1 A3S       0.047100
     32 HN61        -6.3850    -1.2670    -0.6020 hn         1 A3S       0.509000
     33 HN62        -7.1410     0.0680     0.1870 hn         1 A3S       0.509000
     34 H8          -1.7070    -2.3280    -1.5720 h5         1 A3S       0.089800
     35 H7          -0.4790    -0.2770     1.5800 h1         1 A3S       0.060700
     36 H6          -0.7710     1.9450     1.1210 ho         1 A3S       0.559000
     37 H3           1.8180    -0.6730     1.8840 h1         1 A3S       0.091700
     38 HN8          2.2000     1.5160     0.0960 hn         1 A3S       0.340500
     39 HN2          6.3890     0.7860     0.8600 hn         1 A3S       0.408000
     40 HA           4.1770     2.4040    -0.1260 h1         1 A3S       0.077700
     41 HB1          5.7040     0.1690    -1.5090 h1         1 A3S       0.026700
     42 HB2          4.1620     0.8260    -2.0620 h1         1 A3S       0.026700
     43 HOG          6.0010     1.8840    -3.0290 ho         1 A3S       0.443000
     44 HN1          5.6880     2.0450     1.6000 hn         1 A3S       0.408000
@<TRIPOS>BOND
     1     1     2 1   
     2     1    26 1   
     3     2     3 1   
     4     2    27 1   
     5     2    28 1   
     6     3     4 1   
     7     3    18 1   
     8     3    29 1   
     9     4     5 1   
    10     5     6 1   
    11     5    16 1   
    12     5    30 1   
    13     6     7 1   
    14     6    15 1   
    15     7     8 ar  
    16     7    13 ar  
    17     8     9 ar  
    18     9    10 ar  
    19     9    31 1   
    20    10    11 ar  
    21    11    12 1   
    22    11    13 ar  
    23    12    32 1   
    24    12    33 1   
    25    13    14 1   
    26    14    15 2   
    27    15    34 1   
    28    16    17 1   
    29    16    18 1   
    30    16    35 1   
    31    17    36 1   
    32    18    19 1   
    33    18    37 1   
    34    19    24 1   
    35    19    38 1   
    36    20    21 1   
    37    20    39 1   
    38    20    44 1   
    39    21    22 1   
    40    21    24 1   
    41    21    40 1   
    42    22    23 1   
    43    22    41 1   
    44    22    42 1   
    45    23    43 1   
    46    24    25 2   
@<TRIPOS>SUBSTRUCTURE
     1 A3S         1 TEMP              0 ****  ****    0 ROOT
