@<TRIPOS>MOLECULE
A3S
   44    46     1     0     0
SMALL
No Charge or Current Charge


@<TRIPOS>ATOM
      1 O5           0.2790    -3.6110    -0.4160 oh         1 A3S      -0.709000
      2 C5           0.4520    -2.5560     0.5470 c3         1 A3S       0.140600
      3 C4           1.2700    -1.3700    -0.0540 c5         1 A3S       0.141300
      4 O4           0.5240    -0.6780    -1.0870 os         1 A3S      -0.424000
      5 C1          -0.3700     0.2740    -0.4640 c5         1 A3S       0.270300
      6 N9          -1.7480    -0.2160    -0.5260 na         1 A3S      -0.307300
      7 C9          -2.8650     0.3060     0.0750 ca         1 A3S       0.110500
      8 N3          -3.0100     1.3660     0.8960 nb         1 A3S      -0.270000
      9 C2          -4.2710     1.6210     1.3200 ca         1 A3S       0.194900
     10 N1          -5.3870     0.9230     1.0030 nb         1 A3S      -0.303000
     11 C6          -5.2100    -0.1260     0.1860 ca         1 A3S       0.456900
     12 N6          -6.3310    -0.8250    -0.1400 nv         1 A3S      -1.057900
     13 C7          -3.9320    -0.4660    -0.3090 ca         1 A3S      -0.092600
     14 N7          -3.5630    -1.4940    -1.1690 nc         1 A3S      -0.560100
     15 C8          -2.2340    -1.3030    -1.2790 cd         1 A3S       0.427700
     16 C10          0.2060     0.5540     0.9820 c5         1 A3S       0.128300
     17 O2           0.3580     1.9620     1.2680 oh         1 A3S      -0.721000
     18 C3           1.5670    -0.2340     0.9730 c5         1 A3S       0.092700
     19 N8           2.5640     0.6700     0.3550 ns         1 A3S      -0.489900
     20 N            5.9770     1.7930     0.6720 n8         1 A3S      -0.969200
     21 CA           4.8800     1.3420    -0.2710 c3         1 A3S       0.093500
     22 CB           5.4360     0.7890    -1.6170 c3         1 A3S       0.172600
     23 OG           6.1410     1.8070    -2.3500 oh         1 A3S      -0.642000
     24 C            3.8930     0.2900     0.3370 c          1 A3S       0.550100
     25 O            4.2750    -0.7810     0.7950 o          1 A3S      -0.613100
     26 H5          -0.1670    -4.3590     0.0470 ho         1 A3S       0.509000
     27 H5'1         1.0000    -2.9380     1.4190 h1         1 A3S       0.030200
     28 H5'2        -0.5220    -2.2010     0.9090 h1         1 A3S       0.030200
     29 H4           2.1910    -1.7840    -0.4850 h1         1 A3S       0.114700
     30 H1          -0.3650     1.1990    -1.0540 h2         1 A3S       0.097700
     31 H2          -4.4000     2.4750     1.9830 h5         1 A3S       0.047100
     32 HN61        -6.2510    -1.4700    -0.9220 hn         1 A3S       0.509000
     33 HN62        -7.2320    -0.3720    -0.0150 hn         1 A3S       0.509000
     34 H8          -1.5660    -1.9070    -1.8830 h5         1 A3S       0.089800
     35 H7          -0.4580     0.0950     1.7290 h1         1 A3S       0.060700
     36 H6          -0.5470     2.3250     1.4290 ho         1 A3S       0.559000
     37 H3           1.8620    -0.6020     1.9650 h1         1 A3S       0.091700
     38 HN8          2.3270     1.6020     0.0320 hn         1 A3S       0.340500
     39 HN2          6.4990     0.9660     0.9900 hn         1 A3S       0.408000
     40 HA           4.2770     2.2280    -0.5160 h1         1 A3S       0.077700
     41 HB1          6.0990    -0.0630    -1.4130 h1         1 A3S       0.026700
     42 HB2          4.5960     0.4150    -2.2190 h1         1 A3S       0.026700
     43 HOG          6.5310     1.3730    -3.1400 ho         1 A3S       0.443000
     44 HN1          5.5570     2.1510     1.5390 hn         1 A3S       0.408000
@<TRIPOS>BOND
     1     1     2 1   
     2     1    26 1   
     3     2     3 1   
     4     2    27 1   
     5     2    28 1   
     6     3     4 1   
     7     3    18 1   
     8     3    29 1   
     9     4     5 1   
    10     5     6 1   
    11     5    16 1   
    12     5    30 1   
    13     6     7 1   
    14     6    15 1   
    15     7     8 ar  
    16     7    13 ar  
    17     8     9 ar  
    18     9    10 ar  
    19     9    31 1   
    20    10    11 ar  
    21    11    12 1   
    22    11    13 ar  
    23    12    32 1   
    24    12    33 1   
    25    13    14 1   
    26    14    15 2   
    27    15    34 1   
    28    16    17 1   
    29    16    18 1   
    30    16    35 1   
    31    17    36 1   
    32    18    19 1   
    33    18    37 1   
    34    19    24 1   
    35    19    38 1   
    36    20    21 1   
    37    20    39 1   
    38    20    44 1   
    39    21    22 1   
    40    21    24 1   
    41    21    40 1   
    42    22    23 1   
    43    22    41 1   
    44    22    42 1   
    45    23    43 1   
    46    24    25 2   
@<TRIPOS>SUBSTRUCTURE
     1 A3S         1 TEMP              0 ****  ****    0 ROOT
