@<TRIPOS>MOLECULE
A3T
   47    49     1     0     0
SMALL
bcc


@<TRIPOS>ATOM
      1 C           -3.6520     0.2230    -0.7590 c          1 A3T       0.638100
      2 N           -5.9400     1.1860    -0.7360 n8         1 A3T      -0.882800
      3 O           -4.0680    -0.8350    -1.2080 o          1 A3T      -0.610100
      4 N1           5.1830     1.4720    -0.5250 nb         1 A3T      -0.830000
      5 C2           3.9970     2.0060    -0.7900 ca         1 A3T       0.719900
      6 N3           2.8000     1.5170    -0.5080 nb         1 A3T      -0.797000
      7 C4           2.8830     0.3400     0.1170 ca         1 A3T       0.437800
      8 C5           4.0410    -0.3430     0.4490 ca         1 A3T      -0.223200
      9 C6           5.2500     0.2870     0.0960 ca         1 A3T       0.786200
     10 N6           6.4430    -0.2480     0.3480 nv         1 A3T      -0.948500
     11 N7           3.7400    -1.5280     1.0660 nc         1 A3T      -0.561100
     12 C8           2.4370    -1.5540     1.1070 cd         1 A3T       0.428700
     13 N8          -2.3390     0.4890    -0.6430 ns         1 A3T      -0.557900
     14 N9           1.8620    -0.4480     0.5450 na         1 A3T      -0.277000
     15 CA          -4.5840     1.3270    -0.2560 c3         1 A3T       0.053500
     16 CB          -4.5520     1.3520     1.2860 c3         1 A3T       0.163100
     17 OG          -5.0400     0.1370     1.8140 oh         1 A3T      -0.588800
     18 C1           0.4540    -0.0730     0.4570 c5         1 A3T       0.219800
     19 C7           0.0540     0.2300    -1.0080 c5         1 A3T       0.103100
     20 O2           0.0300     1.5870    -1.3140 oh         1 A3T      -0.602800
     21 C3          -1.3240    -0.4270    -1.1050 c5         1 A3T       0.093700
     22 C9          -1.1440    -1.6200    -0.1630 c5         1 A3T       0.120100
     23 O4          -0.3420    -1.1140     0.9050 os         1 A3T      -0.373600
     24 C10         -0.4850    -2.8050    -0.8450 c3         1 A3T       0.117400
     25 O5          -0.2450    -3.7920     0.1260 oh         1 A3T      -0.583800
     26 CG2         -5.2930     2.5560     1.8430 c3         1 A3T      -0.123100
     27 HN          -6.0080     1.5330    -1.6830 hn         1 A3T       0.357800
     28 HNA         -6.1830     0.2040    -0.7900 hn         1 A3T       0.357800
     29 HN6          7.2830     0.2570     0.1210 hn         1 A3T       0.454300
     30 HN6A         6.5290    -1.1150     0.8490 hn         1 A3T       0.454300
     31 H8           1.8430    -2.3550     1.5180 h5         1 A3T       0.090800
     32 HN8         -2.0540     1.4270    -0.4040 hn         1 A3T       0.336500
     33 HA          -4.1910     2.2900    -0.5980 h1         1 A3T       0.067700
     34 HB          -3.5080     1.4130     1.6060 h1         1 A3T       0.068700
     35 HOG         -5.9910     0.1070     1.6630 ho         1 A3T       0.412000
     36 H1           0.3120     0.8090     1.0910 h2         1 A3T       0.096700
     37 H2           0.7300    -0.3150    -1.6800 h1         1 A3T       0.059700
     38 HO2          0.9380     1.9130    -1.1710 ho         1 A3T       0.461000
     39 H3          -1.5420    -0.7520    -2.1260 h1         1 A3T       0.087700
     40 H4          -2.0910    -1.9420     0.2750 h1         1 A3T       0.123700
     41 H5          -1.1630    -3.1560    -1.6340 h1         1 A3T       0.028700
     42 H5'A         0.4440    -2.4950    -1.3410 h1         1 A3T       0.028700
     43 HO5          0.2630    -4.4970    -0.2830 ho         1 A3T       0.408000
     44 HG2         -6.3470     2.5360     1.5630 hc         1 A3T       0.046367
     45 HG2A        -5.2250     2.5780     2.9310 hc         1 A3T       0.046367
     46 HG2B        -4.8650     3.4840     1.4620 hc         1 A3T       0.046367
     47 H6           4.0140     2.9620    -1.3020 h5         1 A3T       0.046100
@<TRIPOS>BOND
     1     1     3 2   
     2     1    13 1   
     3     1    15 1   
     4     2    15 1   
     5     2    27 1   
     6     2    28 1   
     7     4     5 ar  
     8     4     9 ar  
     9     5     6 ar  
    10     5    47 1   
    11     6     7 ar  
    12     7     8 ar  
    13     7    14 1   
    14     8     9 ar  
    15     8    11 1   
    16     9    10 1   
    17    10    29 1   
    18    10    30 1   
    19    11    12 2   
    20    12    14 1   
    21    12    31 1   
    22    13    21 1   
    23    13    32 1   
    24    14    18 1   
    25    15    16 1   
    26    15    33 1   
    27    16    17 1   
    28    16    26 1   
    29    16    34 1   
    30    17    35 1   
    31    18    19 1   
    32    18    23 1   
    33    18    36 1   
    34    19    20 1   
    35    19    21 1   
    36    19    37 1   
    37    20    38 1   
    38    21    22 1   
    39    21    39 1   
    40    22    23 1   
    41    22    24 1   
    42    22    40 1   
    43    24    25 1   
    44    24    41 1   
    45    24    42 1   
    46    25    43 1   
    47    26    44 1   
    48    26    45 1   
    49    26    46 1   
@<TRIPOS>SUBSTRUCTURE
     1 A3T         1 TEMP              0 ****  ****    0 ROOT
