@<TRIPOS>MOLECULE
A3T
   47    49     1     0     0
SMALL
No Charge or Current Charge


@<TRIPOS>ATOM
      1 C           -3.7930     0.0340    -0.6180 c          1 A3T       0.571100
      2 N           -6.0360     1.2910    -1.0730 n8         1 A3T      -0.993200
      3 O           -4.0940    -1.1060    -0.9520 o          1 A3T      -0.610100
      4 N1           5.4320     1.2770    -1.0360 nb         1 A3T      -0.304000
      5 C2           4.2860     1.8460    -1.4790 ca         1 A3T       0.193900
      6 N3           3.0270     1.5460    -1.0780 nb         1 A3T      -0.271000
      7 C4           2.9180     0.5800    -0.1440 ca         1 A3T       0.109500
      8 C5           4.0180    -0.0580     0.3720 ca         1 A3T      -0.092600
      9 C6           5.2910     0.3190    -0.1080 ca         1 A3T       0.457900
     10 N6           6.4410    -0.2490     0.3420 nv         1 A3T      -1.058900
     11 N7           3.6810    -1.0060     1.3320 nc         1 A3T      -0.561100
     12 C8           2.3380    -0.9060     1.3650 cd         1 A3T       0.428700
     13 N8          -2.4960     0.5060    -0.6710 ns         1 A3T      -0.490900
     14 N9           1.8140     0.0470     0.4690 na         1 A3T      -0.306300
     15 CA          -4.8590     1.0740    -0.1370 c3         1 A3T       0.053500
     16 CB          -5.3680     0.7030     1.2820 c3         1 A3T       0.186300
     17 OG          -6.5500     1.4710     1.4820 oh         1 A3T      -0.651000
     18 C1           0.4090     0.4190     0.2940 c5         1 A3T       0.272300
     19 C7          -0.1140     0.4790    -1.1980 c5         1 A3T       0.126300
     20 O2          -0.3420     1.8270    -1.6640 oh         1 A3T      -0.725000
     21 C3          -1.4200    -0.3940    -1.1430 c5         1 A3T       0.093700
     22 C9          -1.0930    -1.3790     0.0220 c5         1 A3T       0.143300
     23 O4          -0.4440    -0.5190     0.9920 os         1 A3T      -0.420000
     24 C10         -0.1670    -2.5620    -0.4030 c3         1 A3T       0.140600
     25 O5           0.0330    -3.4840     0.6840 oh         1 A3T      -0.706000
     26 CG2         -4.3550     0.9870     2.4090 c3         1 A3T      -0.123100
     27 HN          -5.6970     1.6810    -1.9640 hn         1 A3T       0.413000
     28 HNA         -6.4030     0.3720    -1.3620 hn         1 A3T       0.413000
     29 HN6          7.3100     0.2570     0.1950 hn         1 A3T       0.509500
     30 HN6A         6.3770    -0.8060     1.1910 hn         1 A3T       0.509500
     31 H8           1.6860    -1.4860     2.0090 h5         1 A3T       0.090800
     32 HN8         -2.3340     1.4840    -0.4570 hn         1 A3T       0.336500
     33 HA          -4.3440     2.0420    -0.0530 h1         1 A3T       0.067700
     34 HB          -5.6180    -0.3680     1.2960 h1         1 A3T       0.068700
     35 HOG         -6.7820     1.6920     0.5420 ho         1 A3T       0.451000
     36 H1           0.3080     1.4040     0.7660 h2         1 A3T       0.096700
     37 H2           0.6130    -0.0200    -1.8550 h1         1 A3T       0.059700
     38 HO2          0.5450     2.2310    -1.8310 ho         1 A3T       0.560000
     39 H3          -1.6510    -0.8940    -2.0940 h1         1 A3T       0.087700
     40 H4          -2.0010    -1.8100     0.4650 h1         1 A3T       0.123700
     41 H5          -0.6450    -3.0820    -1.2440 h1         1 A3T       0.028700
     42 H5'A         0.7960    -2.1810    -0.7650 h1         1 A3T       0.028700
     43 HO5          0.5520    -4.2440     0.3310 ho         1 A3T       0.507000
     44 HG2         -4.0770     2.0480     2.4300 hc         1 A3T       0.046367
     45 HG2A        -4.7820     0.7250     3.3840 hc         1 A3T       0.046367
     46 HG2B        -3.4420     0.3950     2.2700 hc         1 A3T       0.046367
     47 H6           4.3860     2.6250    -2.2330 h5         1 A3T       0.046100
@<TRIPOS>BOND
     1     1     3 2   
     2     1    13 1   
     3     1    15 1   
     4     2    15 1   
     5     2    27 1   
     6     2    28 1   
     7     4     5 ar  
     8     4     9 ar  
     9     5     6 ar  
    10     5    47 1   
    11     6     7 ar  
    12     7     8 ar  
    13     7    14 1   
    14     8     9 ar  
    15     8    11 1   
    16     9    10 1   
    17    10    29 1   
    18    10    30 1   
    19    11    12 2   
    20    12    14 1   
    21    12    31 1   
    22    13    21 1   
    23    13    32 1   
    24    14    18 1   
    25    15    16 1   
    26    15    33 1   
    27    16    17 1   
    28    16    26 1   
    29    16    34 1   
    30    17    35 1   
    31    18    19 1   
    32    18    23 1   
    33    18    36 1   
    34    19    20 1   
    35    19    21 1   
    36    19    37 1   
    37    20    38 1   
    38    21    22 1   
    39    21    39 1   
    40    22    23 1   
    41    22    24 1   
    42    22    40 1   
    43    24    25 1   
    44    24    41 1   
    45    24    42 1   
    46    25    43 1   
    47    26    44 1   
    48    26    45 1   
    49    26    46 1   
@<TRIPOS>SUBSTRUCTURE
     1 A3T         1 TEMP              0 ****  ****    0 ROOT
