@<TRIPOS>MOLECULE
A3U
   29    29     1     0     0
SMALL
bcc


@<TRIPOS>ATOM
      1 N          -28.1690   -12.9400    20.2720 n8         1 A3U      -0.861800
      2 CA         -26.9710   -13.7580    20.1030 c3         1 A3U       0.022500
      3 C          -26.3210   -13.4870    18.7230 c          1 A3U       0.928600
      4 O          -25.1400   -13.0860    18.7350 o          1 A3U      -0.828300
      5 CB         -27.3730   -15.2310    20.2300 c3         1 A3U      -0.014100
      6 CG         -26.2030   -16.1670    20.1460 ca         1 A3U      -0.053300
      7 CD1        -25.3840   -16.3950    21.2510 ca         1 A3U      -0.092000
      8 CD2        -25.8710   -16.8180    18.9640 ca         1 A3U      -0.092000
      9 CE1        -24.2850   -17.2310    21.1720 ca         1 A3U      -0.169000
     10 CE2        -24.7740   -17.6640    18.8640 ca         1 A3U      -0.169000
     11 CZ         -23.9610   -17.8790    19.9770 ca         1 A3U       0.039600
     12 NZ         -22.8370   -18.7120    19.9930 ns         1 A3U      -0.469100
     13 OZ         -22.6850   -19.4210    17.8360 o          1 A3U      -0.585100
     14 C1         -22.2610   -19.4080    18.9770 c          1 A3U       0.670100
     15 C2         -21.0200   -20.1610    19.3900 c3         1 A3U      -0.185100
     16 OXT        -27.0270   -13.6990    17.7160 o          1 A3U      -0.828300
     17 H          -28.5210   -13.0660    21.2140 hn         1 A3U       0.307300
     18 H2         -27.9240   -11.9590    20.2080 hn         1 A3U       0.307300
     19 HA         -26.2150   -13.5520    20.8750 h1         1 A3U       0.003700
     20 HB2        -28.1000   -15.4600    19.4480 hc         1 A3U       0.036200
     21 HB3        -27.8840   -15.3720    21.1890 hc         1 A3U       0.036200
     22 HD1        -25.6090   -15.9120    22.1950 ha         1 A3U       0.136000
     23 HD2        -26.4840   -16.6630    18.0850 ha         1 A3U       0.136000
     24 HE1        -23.6710   -17.3880    22.0520 ha         1 A3U       0.129000
     25 HE2        -24.5660   -18.1470    17.9240 ha         1 A3U       0.129000
     26 H11        -22.3760   -18.7800    20.8890 hn         1 A3U       0.302500
     27 H12        -20.6920   -20.8090    18.5820 hc         1 A3U       0.054700
     28 H13        -20.2140   -19.4640    19.6240 hc         1 A3U       0.054700
     29 H14        -21.1960   -20.7670    20.2800 hc         1 A3U       0.054700
@<TRIPOS>BOND
     1     1     2 1   
     2     1    17 1   
     3     1    18 1   
     4     2     3 1   
     5     2     5 1   
     6     2    19 1   
     7     3     4 1   
     8     3    16 1   
     9     5     6 1   
    10     5    20 1   
    11     5    21 1   
    12     6     7 ar  
    13     6     8 ar  
    14     7     9 ar  
    15     7    22 1   
    16     8    10 ar  
    17     8    23 1   
    18     9    11 ar  
    19     9    24 1   
    20    10    11 ar  
    21    10    25 1   
    22    11    12 1   
    23    12    14 1   
    24    12    26 1   
    25    13    14 2   
    26    14    15 1   
    27    15    27 1   
    28    15    28 1   
    29    15    29 1   
@<TRIPOS>SUBSTRUCTURE
     1 A3U         1 TEMP              0 ****  ****    0 ROOT
