@<TRIPOS>MOLECULE
A3U
   29    29     1     0     0
SMALL
No Charge or Current Charge


@<TRIPOS>ATOM
      1 N          -28.2190   -12.8960    20.5130 n8         1 A3U      -0.861800
      2 CA         -27.0390   -13.7380    20.0870 c3         1 A3U       0.022500
      3 C          -26.3270   -13.3450    18.7160 c          1 A3U       0.928600
      4 O          -25.2790   -12.7050    18.7660 o          1 A3U      -0.828300
      5 CB         -27.4190   -15.2420    20.1190 c3         1 A3U      -0.014100
      6 CG         -26.2020   -16.1590    20.0460 ca         1 A3U      -0.053300
      7 CD1        -25.3580   -16.3070    21.1620 ca         1 A3U      -0.092000
      8 CD2        -25.9080   -16.8670    18.8660 ca         1 A3U      -0.092000
      9 CE1        -24.2370   -17.1530    21.0960 ca         1 A3U      -0.169000
     10 CE2        -24.7860   -17.7120    18.8020 ca         1 A3U      -0.169000
     11 CZ         -23.9410   -17.8650    19.9210 ca         1 A3U       0.039600
     12 NZ         -22.7920   -18.6950    19.9300 ns         1 A3U      -0.469100
     13 OZ         -22.7940   -19.8530    17.9390 o          1 A3U      -0.585100
     14 C1         -22.2740   -19.5910    19.0130 c          1 A3U       0.670100
     15 C2         -20.9740   -20.2520    19.4580 c3         1 A3U      -0.185100
     16 OXT        -26.8760   -13.6130    17.6500 o          1 A3U      -0.828300
     17 H          -28.5230   -13.1830    21.4480 hn         1 A3U       0.307300
     18 H2         -27.9180   -11.9220    20.6240 hn         1 A3U       0.307300
     19 HA         -26.2890   -13.5880    20.8750 h1         1 A3U       0.003700
     20 HB2        -28.1180   -15.4610    19.3030 hc         1 A3U       0.036200
     21 HB3        -27.9650   -15.4550    21.0460 hc         1 A3U       0.036200
     22 HD1        -25.5720   -15.7670    22.0820 ha         1 A3U       0.136000
     23 HD2        -26.5490   -16.7590    17.9930 ha         1 A3U       0.136000
     24 HE1        -23.5960   -17.2540    21.9700 ha         1 A3U       0.129000
     25 HE2        -24.5900   -18.2330    17.8710 ha         1 A3U       0.129000
     26 H11        -22.2340   -18.6190    20.7710 hn         1 A3U       0.302500
     27 H12        -20.5840   -20.9600    18.7170 hc         1 A3U       0.054700
     28 H13        -20.2400   -19.4730    19.6980 hc         1 A3U       0.054700
     29 H14        -21.1310   -20.7310    20.4310 hc         1 A3U       0.054700
@<TRIPOS>BOND
     1     1     2 1   
     2     1    17 1   
     3     1    18 1   
     4     2     3 1   
     5     2     5 1   
     6     2    19 1   
     7     3     4 1   
     8     3    16 1   
     9     5     6 1   
    10     5    20 1   
    11     5    21 1   
    12     6     7 ar  
    13     6     8 ar  
    14     7     9 ar  
    15     7    22 1   
    16     8    10 ar  
    17     8    23 1   
    18     9    11 ar  
    19     9    24 1   
    20    10    11 ar  
    21    10    25 1   
    22    11    12 1   
    23    12    14 1   
    24    12    26 1   
    25    13    14 2   
    26    14    15 1   
    27    15    27 1   
    28    15    28 1   
    29    15    29 1   
@<TRIPOS>SUBSTRUCTURE
     1 A3U         1 TEMP              0 ****  ****    0 ROOT
