@<TRIPOS>MOLECULE
A3V
   44    45     1     0     0
SMALL
abcg2


@<TRIPOS>ATOM
      1 O            4.8250     1.0460     0.8560 oh         1 A3V      -0.651000
      2 C2           3.7130     0.2010     0.6680 c3         1 A3V       0.215600
      3 C1           4.0250    -0.9590    -0.2770 c3         1 A3V      -0.115400
      4 C            5.1790    -1.8310     0.1980 c3         1 A3V       0.150800
      5 N            5.3880    -2.9360    -0.7270 n8         1 A3V      -0.997200
      6 C3           2.4790     0.9480     0.1990 ca         1 A3V      -0.073300
      7 C15          1.2330     0.3850     0.4310 ca         1 A3V      -0.147000
      8 C7           0.0660     1.0060    -0.0120 ca         1 A3V       0.150100
      9 C6           0.1500     2.2180    -0.6960 ca         1 A3V      -0.198000
     10 C5           1.4010     2.7780    -0.9230 ca         1 A3V      -0.072000
     11 C4           2.5620     2.1600    -0.4840 ca         1 A3V      -0.136000
     12 O1          -1.0860     0.3680     0.2690 os         1 A3V      -0.351100
     13 C8          -2.3170     0.9580    -0.1170 c3         1 A3V       0.167600
     14 C9          -3.4500     0.0390     0.3010 c6         1 A3V      -0.064700
     15 C14         -4.7900     0.7270     0.0370 c6         1 A3V      -0.069900
     16 C13         -5.9670    -0.1630     0.4250 c6         1 A3V      -0.072900
     17 C12         -5.9030    -1.5120    -0.2830 c6         1 A3V      -0.075400
     18 C11         -4.5690    -2.2050    -0.0280 c6         1 A3V      -0.072900
     19 C10         -3.3910    -1.3140    -0.4100 c6         1 A3V      -0.069900
     20 H1           5.2350     1.2160     0.0020 ho         1 A3V       0.442000
     21 H2           3.4920    -0.2150     1.6570 h1         1 A3V       0.075700
     22 H3           3.1270    -1.5750    -0.3740 hc         1 A3V       0.056700
     23 H4           4.2400    -0.5700    -1.2790 hc         1 A3V       0.056700
     24 H5           6.0980    -1.2420     0.2350 h1         1 A3V       0.032700
     25 H6           4.9770    -2.1540     1.2300 h1         1 A3V       0.032700
     26 H7           6.1770    -3.4890    -0.4150 hn         1 A3V       0.392000
     27 H8           4.5900    -3.5570    -0.6880 hn         1 A3V       0.392000
     28 H10          1.1540    -0.5520     0.9730 ha         1 A3V       0.123000
     29 H11         -0.7330     2.7330    -1.0490 ha         1 A3V       0.117000
     30 H12          1.4640     3.7200    -1.4540 ha         1 A3V       0.111000
     31 H13          3.5180     2.6310    -0.6710 ha         1 A3V       0.115000
     32 H14         -2.4290     1.9400     0.3590 h1         1 A3V       0.034200
     33 H15         -2.3440     1.1130    -1.2030 h1         1 A3V       0.034200
     34 H16         -3.3670    -0.1300     1.3830 hc         1 A3V       0.061700
     35 H17         -4.8390     1.6710     0.5860 hc         1 A3V       0.042200
     36 H18         -4.8650     0.9800    -1.0280 hc         1 A3V       0.042200
     37 H19         -5.9580    -0.3210     1.5080 hc         1 A3V       0.039950
     38 H20         -6.9070     0.3420     0.1920 hc         1 A3V       0.039950
     39 H21         -6.7290    -2.1500     0.0430 hc         1 A3V       0.038700
     40 H22         -6.0330    -1.3620    -1.3610 hc         1 A3V       0.038700
     41 H23         -4.4940    -2.4680     1.0330 hc         1 A3V       0.039950
     42 H24         -4.5180    -3.1450    -0.5830 hc         1 A3V       0.039950
     43 H25         -3.4010    -1.1430    -1.4930 hc         1 A3V       0.042200
     44 H26         -2.4520    -1.8230    -0.1820 hc         1 A3V       0.042200
@<TRIPOS>BOND
     1     1     2 1   
     2     1    20 1   
     3     2     3 1   
     4     2     6 1   
     5     2    21 1   
     6     3     4 1   
     7     3    22 1   
     8     3    23 1   
     9     4     5 1   
    10     4    24 1   
    11     4    25 1   
    12     5    26 1   
    13     5    27 1   
    14     6     7 ar  
    15     6    11 ar  
    16     7     8 ar  
    17     7    28 1   
    18     8     9 ar  
    19     8    12 1   
    20     9    10 ar  
    21     9    29 1   
    22    10    11 ar  
    23    10    30 1   
    24    11    31 1   
    25    12    13 1   
    26    13    14 1   
    27    13    32 1   
    28    13    33 1   
    29    14    15 1   
    30    14    19 1   
    31    14    34 1   
    32    15    16 1   
    33    15    35 1   
    34    15    36 1   
    35    16    17 1   
    36    16    37 1   
    37    16    38 1   
    38    17    18 1   
    39    17    39 1   
    40    17    40 1   
    41    18    19 1   
    42    18    41 1   
    43    18    42 1   
    44    19    43 1   
    45    19    44 1   
@<TRIPOS>SUBSTRUCTURE
     1 A3V         1 TEMP              0 ****  ****    0 ROOT
