@<TRIPOS>MOLECULE
A3V
   44    45     1     0     0
SMALL
No Charge or Current Charge


@<TRIPOS>ATOM
      1 O            4.2540     0.5000     1.6960 oh         1 A3V      -0.651000
      2 C2           3.6200    -0.3020     0.6940 c3         1 A3V       0.215600
      3 C1           4.6590    -0.7230    -0.3720 c3         1 A3V      -0.115400
      4 C            5.7320    -1.6890     0.1700 c3         1 A3V       0.150800
      5 N            6.6720    -2.0960    -0.8910 n8         1 A3V      -0.997200
      6 C3           2.4330     0.4660     0.1070 ca         1 A3V      -0.073300
      7 C15          1.1170     0.0600     0.4100 ca         1 A3V      -0.147000
      8 C7           0.0090     0.7470    -0.1120 ca         1 A3V       0.150100
      9 C6           0.2130     1.8640    -0.9500 ca         1 A3V      -0.198000
     10 C5           1.5200     2.2800    -1.2550 ca         1 A3V      -0.072000
     11 C4           2.6230     1.5880    -0.7290 ca         1 A3V      -0.136000
     12 O1          -1.2490     0.2920     0.2250 os         1 A3V      -0.351100
     13 C8          -2.4470     0.9200    -0.2620 c3         1 A3V       0.167600
     14 C9          -3.6880     0.1630     0.2920 c6         1 A3V      -0.064700
     15 C14         -5.0040     0.9020    -0.0820 c6         1 A3V      -0.069900
     16 C13         -6.2480     0.1650     0.4720 c6         1 A3V      -0.072900
     17 C12         -6.2910    -1.3050    -0.0130 c6         1 A3V      -0.075400
     18 C11         -4.9870    -2.0510     0.3580 c6         1 A3V      -0.072900
     19 C10         -3.7410    -1.3150    -0.1940 c6         1 A3V      -0.069900
     20 H1           4.2990     1.4100     1.3330 ho         1 A3V       0.442000
     21 H2           3.2340    -1.2230     1.1540 h1         1 A3V       0.075700
     22 H3           4.1280    -1.2110    -1.1980 hc         1 A3V       0.056700
     23 H4           5.1510     0.1640    -0.7890 hc         1 A3V       0.056700
     24 H5           6.3010    -1.2020     0.9750 h1         1 A3V       0.032700
     25 H6           5.2490    -2.5880     0.5800 h1         1 A3V       0.032700
     26 H7           7.3340    -2.7820    -0.5060 hn         1 A3V       0.392000
     27 H8           6.1610    -2.6310    -1.6040 hn         1 A3V       0.392000
     28 H10          0.9470    -0.7970     1.0570 ha         1 A3V       0.123000
     29 H11         -0.6220     2.4170    -1.3700 ha         1 A3V       0.117000
     30 H12          1.6780     3.1430    -1.9000 ha         1 A3V       0.111000
     31 H13          3.6250     1.9300    -0.9760 ha         1 A3V       0.115000
     32 H14         -2.4910     1.9660     0.0710 h1         1 A3V       0.034200
     33 H15         -2.4780     0.9030    -1.3600 h1         1 A3V       0.034200
     34 H16         -3.5870     0.1710     1.3870 hc         1 A3V       0.061700
     35 H17         -4.9830     1.9280     0.3100 hc         1 A3V       0.042200
     36 H18         -5.0850     0.9890    -1.1750 hc         1 A3V       0.042200
     37 H19         -6.2370     0.1920     1.5700 hc         1 A3V       0.039950
     38 H20         -7.1620     0.6870     0.1570 hc         1 A3V       0.039950
     39 H21         -7.1550    -1.8190     0.4300 hc         1 A3V       0.038700
     40 H22         -6.4360    -1.3320    -1.1020 hc         1 A3V       0.038700
     41 H23         -4.9100    -2.1400     1.4510 hc         1 A3V       0.039950
     42 H24         -5.0200    -3.0760    -0.0360 hc         1 A3V       0.039950
     43 H25         -3.7530    -1.3460    -1.2930 hc         1 A3V       0.042200
     44 H26         -2.8360    -1.8520     0.1210 hc         1 A3V       0.042200
@<TRIPOS>BOND
     1     1     2 1   
     2     1    20 1   
     3     2     3 1   
     4     2     6 1   
     5     2    21 1   
     6     3     4 1   
     7     3    22 1   
     8     3    23 1   
     9     4     5 1   
    10     4    24 1   
    11     4    25 1   
    12     5    26 1   
    13     5    27 1   
    14     6     7 ar  
    15     6    11 ar  
    16     7     8 ar  
    17     7    28 1   
    18     8     9 ar  
    19     8    12 1   
    20     9    10 ar  
    21     9    29 1   
    22    10    11 ar  
    23    10    30 1   
    24    11    31 1   
    25    12    13 1   
    26    13    14 1   
    27    13    32 1   
    28    13    33 1   
    29    14    15 1   
    30    14    19 1   
    31    14    34 1   
    32    15    16 1   
    33    15    35 1   
    34    15    36 1   
    35    16    17 1   
    36    16    37 1   
    37    16    38 1   
    38    17    18 1   
    39    17    39 1   
    40    17    40 1   
    41    18    19 1   
    42    18    41 1   
    43    18    42 1   
    44    19    43 1   
    45    19    44 1   
@<TRIPOS>SUBSTRUCTURE
     1 A3V         1 TEMP              0 ****  ****    0 ROOT
