@<TRIPOS>MOLECULE
A3W
   49    52     1     0     0
SMALL
No Charge or Current Charge


@<TRIPOS>ATOM
      1 CAD         -3.4390     2.4550     0.0280 c6         1 A3W       0.188050
      2 CAA         -4.8170     2.8960    -0.5470 c6         1 A3W       0.132850
      3 OAB         -5.8880     2.0950    -0.0010 os         1 A3W      -0.447000
      4 CAC         -5.7370     0.6930    -0.3170 c6         1 A3W       0.132850
      5 CAF         -4.4110     0.1270     0.2710 c6         1 A3W       0.188050
      6 NAE         -3.2050     0.9670    -0.0720 nh         1 A3W      -0.770800
      7 CAM         -1.8960     0.4260    -0.0030 ca         1 A3W       0.452400
      8 NAR         -0.8580     1.2780    -0.0870 nb         1 A3W      -0.317500
      9 NAL         -1.7740    -0.9040     0.1410 nb         1 A3W      -0.363000
     10 CAK         -0.5130    -1.3650     0.2070 ca         1 A3W       0.452400
     11 NAJ         -0.3270    -2.7640     0.3610 nh         1 A3W      -0.770800
     12 CAI          1.0280    -3.3350     0.6980 c6         1 A3W       0.188050
     13 CAH          1.1580    -4.8460     0.3450 c6         1 A3W       0.132850
     14 OAG          0.0520    -5.6010     0.8860 os         1 A3W      -0.447000
     15 CAN         -1.2190    -5.1610     0.3590 c6         1 A3W       0.132850
     16 CAO         -1.4830    -3.6670     0.7120 c6         1 A3W       0.188050
     17 NAP          0.5830    -0.5890     0.1340 nb         1 A3W      -0.317500
     18 CAQ          0.3680     0.7290    -0.0250 cp         1 A3W       0.290500
     19 CAU          1.5390     1.6560     0.0310 cp         1 A3W      -0.226500
     20 CAT          1.4320     2.8150     0.8450 ca         1 A3W       0.431900
     21 NAY          2.4160     3.7230     1.0140 nb         1 A3W      -0.748000
     22 CAZ          3.5380     3.4980     0.3610 ca         1 A3W       0.640900
     23 NBC          4.4300     4.4530     0.6180 nv         1 A3W      -1.087900
     24 CBA          3.7810     2.4140    -0.4800 ca         1 A3W      -0.219000
     25 CAV          2.7660     1.4520    -0.6830 ca         1 A3W      -0.063300
     26 CAW          3.0180     0.2840    -1.6630 c3         1 A3W       0.360300
     27 FBB          3.3320    -0.8590    -1.0120 f          1 A3W      -0.110000
     28 FAS          1.9450     0.0220    -2.4440 f          1 A3W      -0.110000
     29 FAX          4.0420     0.5320    -2.5130 f          1 A3W      -0.110000
     30 H1          -2.6670     3.0150    -0.5190 h1         1 A3W       0.072325
     31 H2          -3.3810     2.7710     1.0800 h1         1 A3W       0.072325
     32 H3          -4.9980     3.9530    -0.3070 h1         1 A3W       0.055200
     33 H4          -4.8120     2.7940    -1.6420 h1         1 A3W       0.055200
     34 H5          -6.5920     0.1370     0.0920 h1         1 A3W       0.055200
     35 H6          -5.7430     0.5670    -1.4090 h1         1 A3W       0.055200
     36 H7          -4.5150     0.0540     1.3640 h1         1 A3W       0.072325
     37 H8          -4.3010    -0.8980    -0.1110 h1         1 A3W       0.072325
     38 H9           1.8260    -2.8080     0.1540 h1         1 A3W       0.072325
     39 H10          1.2320    -3.2060     1.7710 h1         1 A3W       0.072325
     40 H11          1.1820    -4.9720    -0.7470 h1         1 A3W       0.055200
     41 H12          2.0990    -5.2430     0.7520 h1         1 A3W       0.055200
     42 H13         -1.2220    -5.2900    -0.7330 h1         1 A3W       0.055200
     43 H14         -2.0200    -5.7880     0.7760 h1         1 A3W       0.055200
     44 H15         -1.7010    -3.5930     1.7880 h1         1 A3W       0.072325
     45 H16         -2.3970    -3.3660     0.1780 h1         1 A3W       0.072325
     46 H17          0.5180     3.0090     1.4060 h4         1 A3W       0.037100
     47 H18          4.1960     5.0250     1.4210 hn         1 A3W       0.500000
     48 H19          5.4100     4.2120     0.5160 hn         1 A3W       0.500000
     49 H20          4.7440     2.3340    -0.9720 ha         1 A3W       0.137000
@<TRIPOS>BOND
     1     1     2 1   
     2     1     6 1   
     3     1    30 1   
     4     1    31 1   
     5     2     3 1   
     6     2    32 1   
     7     2    33 1   
     8     3     4 1   
     9     4     5 1   
    10     4    34 1   
    11     4    35 1   
    12     5     6 1   
    13     5    36 1   
    14     5    37 1   
    15     6     7 1   
    16     7     8 ar  
    17     7     9 ar  
    18     8    18 ar  
    19     9    10 ar  
    20    10    11 1   
    21    10    17 ar  
    22    11    12 1   
    23    11    16 1   
    24    12    13 1   
    25    12    38 1   
    26    12    39 1   
    27    13    14 1   
    28    13    40 1   
    29    13    41 1   
    30    14    15 1   
    31    15    16 1   
    32    15    42 1   
    33    15    43 1   
    34    16    44 1   
    35    16    45 1   
    36    17    18 ar  
    37    18    19 1   
    38    19    20 ar  
    39    19    25 ar  
    40    20    21 ar  
    41    20    46 1   
    42    21    22 ar  
    43    22    23 1   
    44    22    24 ar  
    45    23    47 1   
    46    23    48 1   
    47    24    25 ar  
    48    24    49 1   
    49    25    26 1   
    50    26    27 1   
    51    26    28 1   
    52    26    29 1   
@<TRIPOS>SUBSTRUCTURE
     1 A3W         1 TEMP              0 ****  ****    0 ROOT
