@<TRIPOS>MOLECULE
A3W
   49    52     1     0     0
SMALL
bcc


@<TRIPOS>ATOM
      1 CAD         -3.4300     2.3420     0.1430 c6         1 A3W       0.188050
      2 CAA         -4.4880     2.5050    -0.9350 c6         1 A3W       0.109650
      3 OAB         -5.6560     1.7740    -0.6360 os         1 A3W      -0.400600
      4 CAC         -5.3760     0.3990    -0.4910 c6         1 A3W       0.109650
      5 CAF         -4.3560     0.1470     0.6060 c6         1 A3W       0.188050
      6 NAE         -3.1630     0.9320     0.3510 nh         1 A3W      -0.770800
      7 CAM         -1.9230     0.4170     0.4050 ca         1 A3W       0.978400
      8 NAR         -0.8910     1.2530     0.2080 nb         1 A3W      -0.843500
      9 NAL         -1.7950    -0.8870     0.6380 nb         1 A3W      -0.889000
     10 CAK         -0.5480    -1.3480     0.6910 ca         1 A3W       0.978400
     11 NAJ         -0.3700    -2.6610     0.9200 nh         1 A3W      -0.770800
     12 CAI          0.9290    -3.3050     0.8950 c6         1 A3W       0.188050
     13 CAH          0.9640    -4.3200    -0.2350 c6         1 A3W       0.109650
     14 OAG         -0.0920    -5.2500    -0.1330 os         1 A3W      -0.400600
     15 CAN         -1.3510    -4.6120    -0.1320 c6         1 A3W       0.109650
     16 CAO         -1.4670    -3.6050     1.0000 c6         1 A3W       0.188050
     17 NAP          0.5470    -0.5820     0.5550 nb         1 A3W      -0.843500
     18 CAQ          0.3020     0.6900     0.3010 cp         1 A3W       0.816500
     19 CAU          1.4590     1.5980     0.1700 cp         1 A3W      -0.291800
     20 CAT          1.3850     2.8310     0.8070 ca         1 A3W       0.497200
     21 NAY          2.3560     3.7260     0.8600 nb         1 A3W      -0.748000
     22 CAZ          3.5030     3.4470     0.2410 ca         1 A3W       0.706200
     23 NBC          4.4830     4.3620     0.3010 nv         1 A3W      -0.977500
     24 CBA          3.6800     2.2450    -0.4780 ca         1 A3W      -0.302300
     25 CAV          2.6610     1.3240    -0.5060 ca         1 A3W      -0.063300
     26 CAW          2.8690     0.0760    -1.3270 c3         1 A3W       0.724200
     27 FBB          3.2770    -0.9560    -0.5830 f          1 A3W      -0.231300
     28 FAS          1.7650    -0.2900    -1.9800 f          1 A3W      -0.231300
     29 FAX          3.8130     0.2590    -2.2610 f          1 A3W      -0.231300
     30 H1          -2.5170     2.8520    -0.1520 h1         1 A3W       0.072325
     31 H2          -3.7780     2.7900     1.0810 h1         1 A3W       0.072325
     32 H3          -4.7710     3.5550    -1.0180 h1         1 A3W       0.055200
     33 H4          -4.0720     2.1880    -1.9010 h1         1 A3W       0.055200
     34 H5          -6.3130    -0.1010    -0.2420 h1         1 A3W       0.055200
     35 H6          -5.0060    -0.0230    -1.4360 h1         1 A3W       0.055200
     36 H7          -4.7740     0.4290     1.5790 h1         1 A3W       0.072325
     37 H8          -4.1050    -0.9090     0.6420 h1         1 A3W       0.072325
     38 H9           1.7110    -2.5650     0.7620 h1         1 A3W       0.072325
     39 H10          1.0940    -3.8050     1.8550 h1         1 A3W       0.072325
     40 H11          0.9210    -3.7890    -1.1970 h1         1 A3W       0.055200
     41 H12          1.8980    -4.8830    -0.2030 h1         1 A3W       0.055200
     42 H13         -1.5260    -4.1020    -1.0900 h1         1 A3W       0.055200
     43 H14         -2.1100    -5.3870    -0.0200 h1         1 A3W       0.055200
     44 H15         -1.4220    -4.1200     1.9660 h1         1 A3W       0.072325
     45 H16         -2.4170    -3.0800     0.9430 h1         1 A3W       0.072325
     46 H17          0.4700     3.0950     1.3240 h4         1 A3W       0.037100
     47 H18          4.3560     5.1980     0.8440 hn         1 A3W       0.444800
     48 H19          5.3860     4.1940    -0.1040 hn         1 A3W       0.444800
     49 H20          4.6090     2.0840    -1.0060 ha         1 A3W       0.155000
@<TRIPOS>BOND
     1     1     2 1   
     2     1     6 1   
     3     1    30 1   
     4     1    31 1   
     5     2     3 1   
     6     2    32 1   
     7     2    33 1   
     8     3     4 1   
     9     4     5 1   
    10     4    34 1   
    11     4    35 1   
    12     5     6 1   
    13     5    36 1   
    14     5    37 1   
    15     6     7 1   
    16     7     8 ar  
    17     7     9 ar  
    18     8    18 ar  
    19     9    10 ar  
    20    10    11 1   
    21    10    17 ar  
    22    11    12 1   
    23    11    16 1   
    24    12    13 1   
    25    12    38 1   
    26    12    39 1   
    27    13    14 1   
    28    13    40 1   
    29    13    41 1   
    30    14    15 1   
    31    15    16 1   
    32    15    42 1   
    33    15    43 1   
    34    16    44 1   
    35    16    45 1   
    36    17    18 ar  
    37    18    19 1   
    38    19    20 ar  
    39    19    25 ar  
    40    20    21 ar  
    41    20    46 1   
    42    21    22 ar  
    43    22    23 1   
    44    22    24 ar  
    45    23    47 1   
    46    23    48 1   
    47    24    25 ar  
    48    24    49 1   
    49    25    26 1   
    50    26    27 1   
    51    26    28 1   
    52    26    29 1   
@<TRIPOS>SUBSTRUCTURE
     1 A3W         1 TEMP              0 ****  ****    0 ROOT
