@<TRIPOS>MOLECULE
A3X
   29    29     1     0     0
SMALL
No Charge or Current Charge


@<TRIPOS>ATOM
      1 C1          54.9440    34.8310   -10.2390 ca         1 A3X       0.141100
      2 N2          60.4280    33.3300    -5.8700 nt         1 A3X      -0.524000
      3 C3          55.8930    32.6810    -9.6150 ca         1 A3X      -0.082000
      4 C5          56.5770    34.6980    -8.4340 ca         1 A3X      -0.119000
      5 C7          59.8380    32.2860    -5.2680 cs         1 A3X       0.496400
      6 C9          56.3130    37.5840    -8.1060 c3         1 A3X       0.156900
      7 N           57.8020    32.8830    -6.5200 n2         1 A3X      -0.510300
      8 C           55.7110    35.4680    -9.2430 ca         1 A3X       0.040100
      9 O           54.1040    35.5690   -11.0210 oh         1 A3X      -0.528100
     10 C2          55.0310    33.4450   -10.4200 ca         1 A3X      -0.134000
     11 C4          56.6940    33.2990    -8.6280 ca         1 A3X      -0.138900
     12 C8          58.2930    31.2690    -8.3420 c3         1 A3X      -0.172400
     13 N1          58.5160    32.1000    -5.6130 ns         1 A3X      -0.220900
     14 O1          55.5780    36.8400    -9.0960 os         1 A3X      -0.367100
     15 S           60.6710    31.3230    -4.1940 s          1 A3X      -0.669400
     16 H4          61.3930    33.5510    -5.6770 hn         1 A3X       0.338000
     17 H5          59.8850    33.9050    -6.4980 hn         1 A3X       0.338000
     18 H1          55.9240    31.6030    -9.7590 ha         1 A3X       0.118000
     19 H2          57.1720    35.1740    -7.6600 ha         1 A3X       0.127000
     20 H10         56.0570    38.6490    -8.1630 h1         1 A3X       0.043033
     21 H11         56.0730    37.2310    -7.0950 h1         1 A3X       0.043033
     22 H12         57.3940    37.4850    -8.2670 h1         1 A3X       0.043033
     23 H9          54.1970    36.5010   -10.7210 ho         1 A3X       0.485000
     24 H           54.4240    32.9590   -11.1800 ha         1 A3X       0.135000
     25 H6          59.3690    31.3010    -8.1370 hc         1 A3X       0.057367
     26 H7          57.8990    30.3330    -7.9310 hc         1 A3X       0.057367
     27 H8          58.1860    31.2280    -9.4310 hc         1 A3X       0.057367
     28 H3          58.0610    31.3250    -5.1320 hn         1 A3X       0.350500
     29 C6          57.5810    32.4730    -7.7380 ce         1 A3X       0.438900
@<TRIPOS>BOND
     1     1     8 ar  
     2     1     9 1   
     3     1    10 ar  
     4     2     5 1   
     5     2    16 1   
     6     2    17 1   
     7     3    10 ar  
     8     3    11 ar  
     9     3    18 1   
    10     4     8 ar  
    11     4    11 ar  
    12     4    19 1   
    13     5    13 1   
    14     5    15 2   
    15     6    14 1   
    16     6    20 1   
    17     6    21 1   
    18     6    22 1   
    19     7    13 1   
    20     7    29 2   
    21     8    14 1   
    22     9    23 1   
    23    10    24 1   
    24    11    29 1   
    25    12    25 1   
    26    12    26 1   
    27    12    27 1   
    28    12    29 1   
    29    13    28 1   
@<TRIPOS>SUBSTRUCTURE
     1 A3X         1 TEMP              0 ****  ****    0 ROOT
