@<TRIPOS>MOLECULE
A3X
   29    29     1     0     0
SMALL
bcc


@<TRIPOS>ATOM
      1 C1          55.0350    34.8530   -10.1690 ca         1 A3X       0.141100
      2 N2          59.8140    34.1140    -5.2520 nt         1 A3X      -0.591000
      3 C3          55.9040    32.6580    -9.6940 ca         1 A3X      -0.100000
      4 C5          56.7240    34.5510    -8.4690 ca         1 A3X      -0.137000
      5 C7          60.0050    32.8100    -5.3900 cs         1 A3X       0.630400
      6 C9          56.5700    37.3410    -8.0180 c3         1 A3X       0.133700
      7 N           58.3780    32.8590    -7.0620 n2         1 A3X      -0.510300
      8 C           55.8870    35.3830    -9.1800 ca         1 A3X       0.040100
      9 O           54.2100    35.6430   -10.8780 oh         1 A3X      -0.489100
     10 C2          55.0550    33.4930   -10.4120 ca         1 A3X      -0.152000
     11 C4          56.7510    33.1690    -8.7170 ca         1 A3X      -0.138900
     12 C8          57.6770    30.8300    -8.2980 c3         1 A3X      -0.172400
     13 N1          59.2540    32.1710    -6.3130 ns         1 A3X      -0.287900
     14 O1          55.7940    36.7210    -9.0230 os         1 A3X      -0.343900
     15 S           61.1180    31.9360    -4.4800 s          1 A3X      -0.669400
     16 H4          60.3570    34.6250    -4.5790 hn         1 A3X       0.338000
     17 H5          59.1420    34.6090    -5.8170 hn         1 A3X       0.338000
     18 H1          55.8860    31.6020    -9.9210 ha         1 A3X       0.136000
     19 H2          57.3790    34.9580    -7.7110 ha         1 A3X       0.145000
     20 H10         56.3350    38.4010    -8.0560 h1         1 A3X       0.043033
     21 H11         56.3250    36.9580    -7.0240 h1         1 A3X       0.043033
     22 H12         57.6410    37.2100    -8.1940 h1         1 A3X       0.043033
     23 H9          54.3010    36.5610   -10.5940 ho         1 A3X       0.446000
     24 H           54.4010    33.0810   -11.1710 ha         1 A3X       0.153000
     25 H6          58.3990    30.2410    -7.7380 hc         1 A3X       0.057367
     26 H7          56.6950    30.3910    -8.1160 hc         1 A3X       0.057367
     27 H8          57.9030    30.6880    -9.3550 hc         1 A3X       0.057367
     28 H3          59.4040    31.1760    -6.4120 hn         1 A3X       0.350500
     29 C6          57.6640    32.2910    -7.9570 ce         1 A3X       0.438900
@<TRIPOS>BOND
     1     1     8 ar  
     2     1     9 1   
     3     1    10 ar  
     4     2     5 1   
     5     2    16 1   
     6     2    17 1   
     7     3    10 ar  
     8     3    11 ar  
     9     3    18 1   
    10     4     8 ar  
    11     4    11 ar  
    12     4    19 1   
    13     5    13 1   
    14     5    15 2   
    15     6    14 1   
    16     6    20 1   
    17     6    21 1   
    18     6    22 1   
    19     7    13 1   
    20     7    29 2   
    21     8    14 1   
    22     9    23 1   
    23    10    24 1   
    24    11    29 1   
    25    12    25 1   
    26    12    26 1   
    27    12    27 1   
    28    12    29 1   
    29    13    28 1   
@<TRIPOS>SUBSTRUCTURE
     1 A3X         1 TEMP              0 ****  ****    0 ROOT
