@<TRIPOS>MOLECULE
A3Y
   55    57     1     0     0
SMALL
abcg2


@<TRIPOS>ATOM
      1 N3          -4.9320     0.5240    -0.4890 n3         1 A3Y      -0.700600
      2 C4           0.8350    -0.7070     0.5110 ca         1 A3Y       0.738900
      3 N2          -2.4440     0.5170     0.8980 nh         1 A3Y      -0.777300
      4 C7          -4.1380     1.7300    -0.3590 c6         1 A3Y       0.139800
      5 C6          -3.2900     1.6950     0.9040 c6         1 A3Y       0.220300
      6 C9          -3.2180    -0.7020     0.7500 c6         1 A3Y       0.220300
      7 C13          1.2540    -3.7470    -1.2900 c6         1 A3Y      -0.096400
      8 C8          -4.0730    -0.6440    -0.5040 c6         1 A3Y       0.139800
      9 N5           4.0610     0.4850    -0.3290 n1         1 A3Y      -0.465000
     10 C16          2.6650    -2.3650     0.7880 c6         1 A3Y       0.228800
     11 C1          -0.3570     1.7330     1.0310 ca         1 A3Y      -0.253000
     12 C2           0.9920     1.6750     0.8500 ca         1 A3Y      -0.042300
     13 C3           1.6420     0.4650     0.5320 ca         1 A3Y      -0.190000
     14 N1          -0.4830    -0.6230     0.6310 nb         1 A3Y      -0.850000
     15 C5          -1.1000     0.5340     0.8350 ca         1 A3Y       0.709900
     16 C10         -5.7970     0.6000    -1.6520 c3         1 A3Y       0.167800
     17 C11         -6.8480    -0.4880    -1.7250 c3         1 A3Y       0.165600
     18 O1          -7.6800    -0.4170    -0.5900 oh         1 A3Y      -0.642000
     19 N4           1.3510    -1.9450     0.3360 nh         1 A3Y      -0.789300
     20 C12          0.5390    -3.0570    -0.1330 c6         1 A3Y       0.224800
     21 C14          2.6680    -4.1750    -0.9110 c6         1 A3Y      -0.066400
     22 C15          3.4660    -3.0020    -0.3430 c6         1 A3Y      -0.083700
     23 C17          4.8340    -3.4090     0.1740 c3         1 A3Y       0.169600
     24 O2           5.5830    -3.9680    -0.8810 oh         1 A3Y      -0.658000
     25 F1           2.3000     3.2930    -0.2310 f          1 A3Y      -0.107000
     26 F2           1.1010     3.9660     1.4220 f          1 A3Y      -0.107000
     27 F3           2.8480     2.7710     1.7850 f          1 A3Y      -0.107000
     28 H4          -3.4700     1.8810    -1.2250 h1         1 A3Y       0.041950
     29 H5          -4.8020     2.5950    -0.3070 h1         1 A3Y       0.041950
     30 H2          -3.9370     1.6630     1.7860 h1         1 A3Y       0.068700
     31 H3          -2.7070     2.6090     0.9630 h1         1 A3Y       0.068700
     32 H8          -2.5550    -1.5600     0.7150 h1         1 A3Y       0.068700
     33 H9          -3.8670    -0.8030     1.6260 h1         1 A3Y       0.068700
     34 H18          0.6670    -4.6140    -1.6010 hc         1 A3Y       0.050200
     35 H17          1.2880    -3.0630    -2.1430 hc         1 A3Y       0.050200
     36 H7          -4.6780    -1.5510    -0.5360 h1         1 A3Y       0.041950
     37 H6          -3.4180    -0.6570    -1.3930 h1         1 A3Y       0.041950
     38 H23          3.2030    -1.5400     1.2480 h1         1 A3Y       0.052700
     39 H22          2.5180    -3.1110     1.5820 h1         1 A3Y       0.052700
     40 H1          -0.8370     2.6550     1.3120 ha         1 A3Y       0.142000
     41 H10         -6.3030     1.5700    -1.6320 h1         1 A3Y       0.039700
     42 H11         -5.2230     0.5720    -2.5940 h1         1 A3Y       0.039700
     43 H13         -7.4100    -0.3310    -2.6540 h1         1 A3Y       0.016700
     44 H12         -6.3770    -1.4740    -1.8180 h1         1 A3Y       0.016700
     45 H14         -8.3570    -1.0940    -0.6790 ho         1 A3Y       0.438000
     46 H16         -0.4360    -2.6910    -0.4410 h1         1 A3Y       0.055700
     47 H15          0.3810    -3.7680     0.6860 h1         1 A3Y       0.055700
     48 H19          2.6160    -4.9660    -0.1530 hc         1 A3Y       0.049200
     49 H20          3.1750    -4.6010    -1.7780 hc         1 A3Y       0.049200
     50 H21          3.6000    -2.2450    -1.1250 hc         1 A3Y       0.080700
     51 H24          5.3340    -2.5250     0.5930 h1         1 A3Y       0.020200
     52 H25          4.7060    -4.1250     0.9980 h1         1 A3Y       0.020200
     53 H26          6.4260    -4.2640    -0.5280 ho         1 A3Y       0.444000
     54 C18          2.9780     0.4690     0.0760 cg         1 A3Y       0.343000
     55 C19          1.8080     2.9340     0.9620 c3         1 A3Y       0.351300
@<TRIPOS>BOND
     1     1     4 1   
     2     1     8 1   
     3     1    16 1   
     4     2    13 ar  
     5     2    14 ar  
     6     2    19 1   
     7     3     5 1   
     8     3     6 1   
     9     3    15 1   
    10     4     5 1   
    11     4    28 1   
    12     4    29 1   
    13     5    30 1   
    14     5    31 1   
    15     6     8 1   
    16     6    32 1   
    17     6    33 1   
    18     7    20 1   
    19     7    21 1   
    20     7    34 1   
    21     7    35 1   
    22     8    36 1   
    23     8    37 1   
    24     9    54 3   
    25    10    19 1   
    26    10    22 1   
    27    10    38 1   
    28    10    39 1   
    29    11    12 ar  
    30    11    15 ar  
    31    11    40 1   
    32    12    13 ar  
    33    12    55 1   
    34    13    54 1   
    35    14    15 ar  
    36    16    17 1   
    37    16    41 1   
    38    16    42 1   
    39    17    18 1   
    40    17    43 1   
    41    17    44 1   
    42    18    45 1   
    43    19    20 1   
    44    20    46 1   
    45    20    47 1   
    46    21    22 1   
    47    21    48 1   
    48    21    49 1   
    49    22    23 1   
    50    22    50 1   
    51    23    24 1   
    52    23    51 1   
    53    23    52 1   
    54    24    53 1   
    55    25    55 1   
    56    26    55 1   
    57    27    55 1   
@<TRIPOS>SUBSTRUCTURE
     1 A3Y         1 TEMP              0 ****  ****    0 ROOT
