@<TRIPOS>MOLECULE
A3Y
   55    57     1     0     0
SMALL
No Charge or Current Charge


@<TRIPOS>ATOM
      1 N3          -4.7170     0.1740    -0.2760 n3         1 A3Y      -0.700600
      2 C4           0.9080    -0.1550     0.1390 ca         1 A3Y       0.738900
      3 N2          -2.2760     0.8770     1.2860 nh         1 A3Y      -0.777300
      4 C7          -3.9900     1.4670    -0.4800 c6         1 A3Y       0.139800
      5 C6          -3.2050     1.9370     0.7870 c6         1 A3Y       0.220300
      6 C9          -2.9800    -0.4310     1.4870 c6         1 A3Y       0.220300
      7 C13          1.4110    -3.0340    -2.2420 c6         1 A3Y      -0.096400
      8 C8          -3.7620    -0.8750     0.2100 c6         1 A3Y       0.139800
      9 N5           4.2400     0.8350    -0.4240 n1         1 A3Y      -0.465000
     10 C16          2.1500    -2.2710     0.5040 c6         1 A3Y       0.228800
     11 C1          -0.1680     2.1080     1.1900 ca         1 A3Y      -0.253000
     12 C2           1.2000     2.1530     0.8540 ca         1 A3Y      -0.042300
     13 C3           1.7450     0.9660     0.3040 ca         1 A3Y      -0.190000
     14 N1          -0.3870    -0.1740     0.4640 nb         1 A3Y      -0.850000
     15 C5          -0.9100     0.9400     0.9720 ca         1 A3Y       0.709900
     16 C10         -5.4950    -0.2330    -1.4830 c3         1 A3Y       0.167800
     17 C11         -6.4210    -1.4780    -1.3310 c3         1 A3Y       0.165600
     18 O1          -7.4480    -1.2650    -0.3450 oh         1 A3Y      -0.642000
     19 N4           1.3620    -1.3750    -0.3810 nh         1 A3Y      -0.789300
     20 C12          0.5270    -2.1120    -1.3680 c6         1 A3Y       0.224800
     21 C14          2.2570    -3.9930    -1.3710 c6         1 A3Y      -0.066400
     22 C15          3.0830    -3.1920    -0.3250 c6         1 A3Y      -0.083700
     23 C17          3.9170    -4.1130     0.6090 c3         1 A3Y       0.169600
     24 O2           4.8980    -4.8670    -0.1130 oh         1 A3Y      -0.658000
     25 F1           2.5440     3.9130    -0.0760 f          1 A3Y      -0.107000
     26 F2           1.3150     4.4400     1.6280 f          1 A3Y      -0.107000
     27 F3           3.0770     3.2120     1.9150 f          1 A3Y      -0.107000
     28 H4          -3.2760     1.3680    -1.3110 h1         1 A3Y       0.041950
     29 H5          -4.6980     2.2600    -0.7630 h1         1 A3Y       0.041950
     30 H2          -3.9260     2.1990     1.5760 h1         1 A3Y       0.068700
     31 H3          -2.6650     2.8620     0.5410 h1         1 A3Y       0.068700
     32 H8          -2.2830    -1.2280     1.7850 h1         1 A3Y       0.068700
     33 H9          -3.6960    -0.3360     2.3170 h1         1 A3Y       0.068700
     34 H18          0.7780    -3.6100    -2.9300 hc         1 A3Y       0.050200
     35 H17          2.0740    -2.4180    -2.8650 hc         1 A3Y       0.050200
     36 H7          -4.2970    -1.8050     0.4490 h1         1 A3Y       0.041950
     37 H6          -3.0340    -1.1170    -0.5780 h1         1 A3Y       0.041950
     38 H23          2.7610    -1.6790     1.2020 h1         1 A3Y       0.052700
     39 H22          1.4710    -2.8880     1.1120 h1         1 A3Y       0.052700
     40 H1          -0.6630     2.9660     1.6300 ha         1 A3Y       0.142000
     41 H10         -6.1260     0.6050    -1.8070 h1         1 A3Y       0.039700
     42 H11         -4.8000    -0.4350    -2.3100 h1         1 A3Y       0.039700
     43 H13         -6.8830    -1.6840    -2.3060 h1         1 A3Y       0.016700
     44 H12         -5.8180    -2.3570    -1.0700 h1         1 A3Y       0.016700
     45 H14         -7.9550    -2.1030    -0.2770 ho         1 A3Y       0.438000
     46 H16         -0.0050    -1.4080    -2.0250 h1         1 A3Y       0.055700
     47 H15         -0.2320    -2.7170    -0.8490 h1         1 A3Y       0.055700
     48 H19          1.5960    -4.7070    -0.8590 hc         1 A3Y       0.049200
     49 H20          2.9210    -4.5850    -2.0150 hc         1 A3Y       0.049200
     50 H21          3.8030    -2.5540    -0.8550 hc         1 A3Y       0.080700
     51 H24          4.4140    -3.4870     1.3620 h1         1 A3Y       0.020200
     52 H25          3.2340    -4.7900     1.1400 h1         1 A3Y       0.020200
     53 H26          5.3770    -5.4180     0.5450 ho         1 A3Y       0.444000
     54 C18          3.1190     0.8850    -0.1030 cg         1 A3Y       0.343000
     55 C19          2.0350     3.4330     1.0810 c3         1 A3Y       0.351300
@<TRIPOS>BOND
     1     1     4 1   
     2     1     8 1   
     3     1    16 1   
     4     2    13 ar  
     5     2    14 ar  
     6     2    19 1   
     7     3     5 1   
     8     3     6 1   
     9     3    15 1   
    10     4     5 1   
    11     4    28 1   
    12     4    29 1   
    13     5    30 1   
    14     5    31 1   
    15     6     8 1   
    16     6    32 1   
    17     6    33 1   
    18     7    20 1   
    19     7    21 1   
    20     7    34 1   
    21     7    35 1   
    22     8    36 1   
    23     8    37 1   
    24     9    54 3   
    25    10    19 1   
    26    10    22 1   
    27    10    38 1   
    28    10    39 1   
    29    11    12 ar  
    30    11    15 ar  
    31    11    40 1   
    32    12    13 ar  
    33    12    55 1   
    34    13    54 1   
    35    14    15 ar  
    36    16    17 1   
    37    16    41 1   
    38    16    42 1   
    39    17    18 1   
    40    17    43 1   
    41    17    44 1   
    42    18    45 1   
    43    19    20 1   
    44    20    46 1   
    45    20    47 1   
    46    21    22 1   
    47    21    48 1   
    48    21    49 1   
    49    22    23 1   
    50    22    50 1   
    51    23    24 1   
    52    23    51 1   
    53    23    52 1   
    54    24    53 1   
    55    25    55 1   
    56    26    55 1   
    57    27    55 1   
@<TRIPOS>SUBSTRUCTURE
     1 A3Y         1 TEMP              0 ****  ****    0 ROOT
