@<TRIPOS>MOLECULE
A3Z
   52    51     1     0     0
SMALL
No Charge or Current Charge


@<TRIPOS>ATOM
      1 C1         143.3350   106.6670   101.5540 c          1 A3Z       0.595900
      2 C2         143.7540   107.8290   102.3860 ce         1 A3Z      -0.289200
      3 C3         144.8770   107.8580   103.1420 c2         1 A3Z      -0.152200
      4 C4         145.3210   109.0260   103.9940 c3         1 A3Z      -0.065900
      5 O5         143.9600   105.6200   101.4760 o          1 A3Z      -0.542100
      6 C29        139.2800   100.9760   101.1480 c3         1 A3Z      -0.079000
      7 C30        139.8020   102.4250   100.9210 c3         1 A3Z      -0.074600
      8 C31        139.8990   100.4420   102.4760 c3         1 A3Z      -0.074600
      9 C32        139.7600   100.0720    99.9530 c3         1 A3Z       0.113300
     10 C34        139.3480   100.6160    98.5350 c          1 A3Z       0.608100
     11 C37        140.2440   101.6350    96.4160 c3         1 A3Z       0.116000
     12 C38        141.3430   102.6440    96.0390 c3         1 A3Z      -0.170400
     13 C39        141.2620   103.9260    96.8700 c          1 A3Z       0.594100
     14 C42        142.5090   105.3530    98.5300 c3         1 A3Z       0.118000
     15 C43        141.5540   105.4150    99.7400 c3         1 A3Z       0.033600
     16 N36        140.3860   101.1350    97.7840 ns         1 A3Z      -0.532900
     17 N41        142.3250   104.1450    97.7180 ns         1 A3Z      -0.514900
     18 O23        135.5460   102.6760   103.9330 o          1 A3Z      -0.930500
     19 O25        135.3300   100.3870   103.1580 o          1 A3Z      -0.930500
     20 O26        134.9120   102.2430   101.6310 o          1 A3Z      -0.930500
     21 O27        137.2930   101.7770   102.3590 os         1 A3Z      -0.598400
     22 O33        139.3410    98.7000   100.1460 oh         1 A3Z      -0.647000
     23 O35        138.2090   100.5510    98.0870 o          1 A3Z      -0.557100
     24 O40        140.3480   104.7280    96.7520 o          1 A3Z      -0.578100
     25 P24        135.7390   101.7650   102.7720 p5         1 A3Z       1.274900
     26 S44        141.7680   106.9940   100.6910 ss         1 A3Z      -0.325600
     27 H1         143.0870   108.6890   102.3570 ha         1 A3Z       0.198000
     28 H2         145.5490   106.9960   103.1740 ha         1 A3Z       0.183000
     29 H3         146.2630   108.8050   104.5100 hc         1 A3Z       0.043033
     30 H4         145.4770   109.9230   103.3830 hc         1 A3Z       0.043033
     31 H5         144.5700   109.2650   104.7570 hc         1 A3Z       0.043033
     32 H6         137.2910   101.3880   100.3160 h1         1 A3Z       0.025700
     33 H7         137.3530    99.9500   101.3500 h1         1 A3Z       0.025700
     34 H8         139.5870   103.0670   101.7840 hc         1 A3Z       0.026700
     35 H9         140.8880   102.4230   100.7710 hc         1 A3Z       0.026700
     36 H10        139.3370   102.8870   100.0420 hc         1 A3Z       0.026700
     37 H11        139.6940   101.1220   103.3130 hc         1 A3Z       0.026700
     38 H12        139.4900    99.4600   102.7440 hc         1 A3Z       0.026700
     39 H13        140.9890   100.3460   102.3900 hc         1 A3Z       0.026700
     40 H14        140.8580   100.0850    99.9700 h1         1 A3Z      -0.014300
     41 H15        139.2610   102.1120    96.3010 h1         1 A3Z       0.059700
     42 H16        140.2860   100.7790    95.7280 h1         1 A3Z       0.059700
     43 H17        142.3220   102.1660    96.1600 hc         1 A3Z       0.045700
     44 H18        141.2020   102.9100    94.9850 hc         1 A3Z       0.045700
     45 H19        143.5500   105.3810    98.8770 h1         1 A3Z       0.049200
     46 H20        142.3460   106.2320    97.8930 h1         1 A3Z       0.049200
     47 H21        140.5170   105.3600    99.3840 h1         1 A3Z       0.114200
     48 H22        141.7350   104.5620   100.4030 h1         1 A3Z       0.114200
     49 H23        141.3080   101.1170    98.2050 hn         1 A3Z       0.298500
     50 H24        143.0540   103.4400    97.7290 hn         1 A3Z       0.305500
     51 H27        139.7760    98.3770   100.9640 ho         1 A3Z       0.447000
     52 C28        137.7150   100.9810   101.2420 c3         1 A3Z       0.246600
@<TRIPOS>BOND
     1     1     2 1   
     2     1     5 2   
     3     1    26 1   
     4     2     3 2   
     5     2    27 1   
     6     3     4 1   
     7     3    28 1   
     8     4    29 1   
     9     4    30 1   
    10     4    31 1   
    11     6     7 1   
    12     6     8 1   
    13     6     9 1   
    14     6    52 1   
    15     7    34 1   
    16     7    35 1   
    17     7    36 1   
    18     8    37 1   
    19     8    38 1   
    20     8    39 1   
    21     9    10 1   
    22     9    22 1   
    23     9    40 1   
    24    10    16 1   
    25    10    23 2   
    26    11    12 1   
    27    11    16 1   
    28    11    41 1   
    29    11    42 1   
    30    12    13 1   
    31    12    43 1   
    32    12    44 1   
    33    13    17 1   
    34    13    24 2   
    35    14    15 1   
    36    14    17 1   
    37    14    45 1   
    38    14    46 1   
    39    15    26 1   
    40    15    47 1   
    41    15    48 1   
    42    16    49 1   
    43    17    50 1   
    44    18    25 1   
    45    19    25 1   
    46    20    25 1   
    47    21    25 1   
    48    21    52 1   
    49    22    51 1   
    50    32    52 1   
    51    33    52 1   
@<TRIPOS>SUBSTRUCTURE
     1 A3Z         1 TEMP              0 ****  ****    0 ROOT
