@<TRIPOS>MOLECULE
A3Z
   52    51     1     0     0
SMALL
abcg2


@<TRIPOS>ATOM
      1 C1         143.2740   106.6660   101.6290 c          1 A3Z       0.595900
      2 C2         143.5930   107.8200   102.4810 ce         1 A3Z      -0.289200
      3 C3         144.7520   107.9120   103.1400 c2         1 A3Z      -0.152200
      4 C4         145.1490   109.0480   104.0130 c3         1 A3Z      -0.065900
      5 O5         143.9960   105.7050   101.4390 o          1 A3Z      -0.542100
      6 C29        139.3070   100.9900   100.9840 c3         1 A3Z      -0.079000
      7 C30        140.0550   102.2970   100.7080 c3         1 A3Z      -0.074600
      8 C31        139.8190   100.3820   102.2980 c3         1 A3Z      -0.074600
      9 C32        139.6110    99.9800    99.8400 c3         1 A3Z       0.113300
     10 C34        139.3090   100.5210    98.4390 c          1 A3Z       0.608100
     11 C37        140.3280   101.5280    96.4300 c3         1 A3Z       0.116000
     12 C38        141.4310   102.5590    96.2340 c3         1 A3Z      -0.170400
     13 C39        141.2150   103.8100    97.0680 c          1 A3Z       0.594100
     14 C42        142.2860   105.4790    98.5300 c3         1 A3Z       0.118000
     15 C43        141.6030   105.3030    99.8860 c3         1 A3Z       0.033600
     16 N36        140.3900   100.9480    97.7620 ns         1 A3Z      -0.532900
     17 N41        142.2860   104.2480    97.7570 ns         1 A3Z      -0.514900
     18 O23        136.2450   103.1110   104.0470 o          1 A3Z      -0.930500
     19 O25        136.0530   100.6030   103.5600 o          1 A3Z      -0.930500
     20 O26        134.9940   102.2870   101.9620 o          1 A3Z      -0.930500
     21 O27        137.5430   102.1480   102.1660 os         1 A3Z      -0.598400
     22 O33        138.8840    98.7580    99.9500 oh         1 A3Z      -0.647000
     23 O35        138.1690   100.5640    97.9800 o          1 A3Z      -0.557100
     24 O40        140.1330   104.4000    97.0780 o          1 A3Z      -0.578100
     25 P24        136.0880   102.0210   102.9940 p5         1 A3Z       1.274900
     26 S44        141.6550   106.8160   100.8810 ss         1 A3Z      -0.325600
     27 H1         142.8470   108.6040   102.5530 ha         1 A3Z       0.198000
     28 H2         145.4670   107.1000   103.0330 ha         1 A3Z       0.183000
     29 H3         145.3640   108.6900   105.0250 hc         1 A3Z       0.043033
     30 H4         146.0740   109.5010   103.6450 hc         1 A3Z       0.043033
     31 H5         144.3750   109.8130   104.0650 hc         1 A3Z       0.043033
     32 H6         137.4340   101.6930   100.1560 h1         1 A3Z       0.025700
     33 H7         137.2740   100.3130   101.2510 h1         1 A3Z       0.025700
     34 H8         139.9360   102.9770   101.5500 hc         1 A3Z       0.026700
     35 H9         141.1230   102.1200   100.5610 hc         1 A3Z       0.026700
     36 H10        139.6720   102.7960    99.8170 hc         1 A3Z       0.026700
     37 H11        139.6760   101.0890   103.1130 hc         1 A3Z       0.026700
     38 H12        139.2800    99.4700   102.5640 hc         1 A3Z       0.026700
     39 H13        140.8840   100.1480   102.2250 hc         1 A3Z       0.026700
     40 H14        140.6840    99.7670    99.8920 h1         1 A3Z      -0.014300
     41 H15        139.3510   101.9910    96.3090 h1         1 A3Z       0.059700
     42 H16        140.4230   100.7460    95.6720 h1         1 A3Z       0.059700
     43 H17        142.4080   102.1150    96.4350 hc         1 A3Z       0.045700
     44 H18        141.4290   102.8730    95.1870 hc         1 A3Z       0.045700
     45 H19        143.3220   105.7790    98.6690 h1         1 A3Z       0.049200
     46 H20        141.7770   106.2550    97.9590 h1         1 A3Z       0.049200
     47 H21        140.5500   105.0660    99.7580 h1         1 A3Z       0.114200
     48 H22        142.0780   104.5110   100.4600 h1         1 A3Z       0.114200
     49 H23        141.2990   100.8140    98.1770 hn         1 A3Z       0.298500
     50 H24        143.1280   103.6960    97.7410 hn         1 A3Z       0.305500
     51 H27        139.1310    98.3380   100.7830 ho         1 A3Z       0.447000
     52 C28        137.7980   101.2590   101.0910 c3         1 A3Z       0.246600
@<TRIPOS>BOND
     1     1     2 1   
     2     1     5 2   
     3     1    26 1   
     4     2     3 2   
     5     2    27 1   
     6     3     4 1   
     7     3    28 1   
     8     4    29 1   
     9     4    30 1   
    10     4    31 1   
    11     6     7 1   
    12     6     8 1   
    13     6     9 1   
    14     6    52 1   
    15     7    34 1   
    16     7    35 1   
    17     7    36 1   
    18     8    37 1   
    19     8    38 1   
    20     8    39 1   
    21     9    10 1   
    22     9    22 1   
    23     9    40 1   
    24    10    16 1   
    25    10    23 2   
    26    11    12 1   
    27    11    16 1   
    28    11    41 1   
    29    11    42 1   
    30    12    13 1   
    31    12    43 1   
    32    12    44 1   
    33    13    17 1   
    34    13    24 2   
    35    14    15 1   
    36    14    17 1   
    37    14    45 1   
    38    14    46 1   
    39    15    26 1   
    40    15    47 1   
    41    15    48 1   
    42    16    49 1   
    43    17    50 1   
    44    18    25 1   
    45    19    25 1   
    46    20    25 1   
    47    21    25 1   
    48    21    52 1   
    49    22    51 1   
    50    32    52 1   
    51    33    52 1   
@<TRIPOS>SUBSTRUCTURE
     1 A3Z         1 TEMP              0 ****  ****    0 ROOT
