@<TRIPOS>MOLECULE
A41
   32    33     1     0     0
SMALL
bcc


@<TRIPOS>ATOM
      1 C1          -2.6840    -1.7970     2.1650 ca         1 A41      -0.093000
      2 C2          -2.7750    -2.3550     0.8980 ca         1 A41      -0.157000
      3 C3          -2.4390    -1.6060    -0.2220 ca         1 A41      -0.026500
      4 C4          -2.0200    -0.2950    -0.0510 ca         1 A41      -0.284500
      5 C5          -1.9210     0.2760     1.2130 ca         1 A41      -0.026500
      6 C6          -2.2550    -0.4840     2.3220 ca         1 A41      -0.157000
      7 S7          -1.6050     0.7040    -1.4570 sy         1 A41       1.281200
      8 N8          -0.0470     1.1700    -1.2270 nu         1 A41      -0.717500
      9 O9          -2.3820     1.9340    -1.4020 o          1 A41      -0.636800
     10 O10         -1.7120    -0.1300    -2.6450 o          1 A41      -0.636800
     11 C11          0.9450     0.2490    -0.8310 ca         1 A41       0.148600
     12 C12          1.1360    -0.9620    -1.4920 ca         1 A41      -0.184000
     13 C13          2.1300    -1.8310    -1.0810 ca         1 A41      -0.119000
     14 C14          2.9720    -1.5170    -0.0160 ca         1 A41      -0.129300
     15 C15          2.7740    -0.3020     0.6250 ca         1 A41      -0.078000
     16 C16          1.7730     0.5910     0.2490 ca         1 A41      -0.179600
     17 C17          1.6200     1.8920     1.0240 c          1 A41       0.929200
     18 O18          2.3570     2.0750     1.9960 o          1 A41      -0.795800
     19 O19          0.7390     2.7050     0.6150 o          1 A41      -0.795800
     20 C20          4.0600    -2.4600     0.4100 c3         1 A41      -0.030800
     21 H1          -2.9440    -2.3860     3.0340 ha         1 A41       0.116000
     22 H2          -3.1050    -3.3780     0.7750 ha         1 A41       0.124500
     23 H3          -2.5080    -2.0430    -1.2080 ha         1 A41       0.159000
     24 H5          -1.5750     1.2940     1.3430 ha         1 A41       0.159000
     25 H6          -2.1770    -0.0510     3.3100 ha         1 A41       0.124500
     26 HN8          0.0510     2.0140    -0.5860 hn         1 A41       0.525800
     27 H12          0.5160    -1.2290    -2.3370 ha         1 A41       0.143000
     28 H13          2.2540    -2.7710    -1.6070 ha         1 A41       0.108000
     29 H15          3.4100    -0.0330     1.4590 ha         1 A41       0.146000
     30 H201         4.8500    -2.5220    -0.3410 hc         1 A41       0.026700
     31 H202         4.5200    -2.1410     1.3450 hc         1 A41       0.026700
     32 H203         3.6780    -3.4710     0.5550 hc         1 A41       0.026700
@<TRIPOS>BOND
     1     1     2 ar  
     2     1     6 ar  
     3     1    21 1   
     4     2     3 ar  
     5     2    22 1   
     6     3     4 ar  
     7     3    23 1   
     8     4     5 ar  
     9     4     7 1   
    10     5     6 ar  
    11     5    24 1   
    12     6    25 1   
    13     7     8 1   
    14     7     9 2   
    15     7    10 2   
    16     8    11 1   
    17     8    26 1   
    18    11    12 ar  
    19    11    16 ar  
    20    12    13 ar  
    21    12    27 1   
    22    13    14 ar  
    23    13    28 1   
    24    14    15 ar  
    25    14    20 1   
    26    15    16 ar  
    27    15    29 1   
    28    16    17 1   
    29    17    18 1   
    30    17    19 1   
    31    20    30 1   
    32    20    31 1   
    33    20    32 1   
@<TRIPOS>SUBSTRUCTURE
     1 A41         1 TEMP              0 ****  ****    0 ROOT
