@<TRIPOS>MOLECULE
A41
   32    33     1     0     0
SMALL
No Charge or Current Charge


@<TRIPOS>ATOM
      1 C1          -2.6940    -1.8020     2.2260 ca         1 A41      -0.075000
      2 C2          -2.4420    -2.4030     0.9820 ca         1 A41      -0.139000
      3 C3          -2.1310    -1.6110    -0.1370 ca         1 A41      -0.008500
      4 C4          -2.0750    -0.2070    -0.0120 ca         1 A41      -0.284500
      5 C5          -2.3230     0.3960     1.2390 ca         1 A41      -0.008500
      6 C6          -2.6330    -0.4040     2.3530 ca         1 A41      -0.139000
      7 S7          -1.6530     0.8100    -1.4310 sy         1 A41       1.139600
      8 N8          -0.0280     1.1360    -1.2560 nu         1 A41      -0.911100
      9 O9          -2.2380     2.1430    -1.2780 o          1 A41      -0.566000
     10 O10         -1.7510     0.0470    -2.6770 o          1 A41      -0.566000
     11 C11          0.9600     0.2530    -0.8510 ca         1 A41       0.287000
     12 C12          1.1000    -0.9850    -1.5060 ca         1 A41      -0.166000
     13 C13          2.0860    -1.9010    -1.1150 ca         1 A41      -0.101000
     14 C14          2.9550    -1.5860    -0.0600 ca         1 A41      -0.129300
     15 C15          2.8340    -0.3450     0.5890 ca         1 A41      -0.060000
     16 C16          1.8430     0.5930     0.2070 ca         1 A41      -0.179600
     17 C17          1.7630     1.9200     0.9430 c          1 A41       0.718600
     18 O18          2.7190     2.2610     1.6260 o          1 A41      -0.690500
     19 O19          0.7540     2.6060     0.8320 o          1 A41      -0.690500
     20 C20          4.0300    -2.5740     0.3700 c3         1 A41      -0.030800
     21 H1          -2.9330    -2.4170     3.0900 ha         1 A41       0.098000
     22 H2          -2.4850    -3.4850     0.8830 ha         1 A41       0.106500
     23 H3          -1.9320    -2.0910    -1.0940 ha         1 A41       0.141000
     24 H5          -2.2730     1.4780     1.3530 ha         1 A41       0.141000
     25 H6          -2.8250     0.0620     3.3170 ha         1 A41       0.106500
     26 HN8         -0.0660     1.9490    -0.6390 hn         1 A41       0.581000
     27 H12          0.4460    -1.2430    -2.3330 ha         1 A41       0.125000
     28 H13          2.1750    -2.8530    -1.6340 ha         1 A41       0.090000
     29 H15          3.5190    -0.1120     1.4020 ha         1 A41       0.128000
     30 H201         4.9810    -2.3580    -0.1300 hc         1 A41       0.026700
     31 H202         4.2020    -2.5290     1.4520 hc         1 A41       0.026700
     32 H203         3.7480    -3.6060     0.1250 hc         1 A41       0.026700
@<TRIPOS>BOND
     1     1     2 ar  
     2     1     6 ar  
     3     1    21 1   
     4     2     3 ar  
     5     2    22 1   
     6     3     4 ar  
     7     3    23 1   
     8     4     5 ar  
     9     4     7 1   
    10     5     6 ar  
    11     5    24 1   
    12     6    25 1   
    13     7     8 1   
    14     7     9 2   
    15     7    10 2   
    16     8    11 1   
    17     8    26 1   
    18    11    12 ar  
    19    11    16 ar  
    20    12    13 ar  
    21    12    27 1   
    22    13    14 ar  
    23    13    28 1   
    24    14    15 ar  
    25    14    20 1   
    26    15    16 ar  
    27    15    29 1   
    28    16    17 1   
    29    17    18 1   
    30    17    19 1   
    31    20    30 1   
    32    20    31 1   
    33    20    32 1   
@<TRIPOS>SUBSTRUCTURE
     1 A41         1 TEMP              0 ****  ****    0 ROOT
