@<TRIPOS>MOLECULE
A42
   35    36     1     0     0
SMALL
abcg2


@<TRIPOS>ATOM
      1 C1          -5.4580    -0.6790    -0.6970 ca         1 A42       0.317000
      2 N2          -5.2760    -1.3300     0.4550 nb         1 A42      -0.575000
      3 C3          -4.0830    -1.2880     0.9840 ca         1 A42       0.232900
      4 C4          -3.0240    -0.5820     0.3680 ca         1 A42       0.478900
      5 N5          -3.2180     0.0820    -0.7550 nb         1 A42      -0.657000
      6 C6          -4.4280     0.0310    -1.2890 ca         1 A42       0.380900
      7 C7          -6.7530    -0.7520    -1.2940 cg         1 A42       0.233000
      8 N8          -7.7970    -0.8030    -1.7750 n1         1 A42      -0.433000
      9 N9          -1.7980    -0.6070     0.9750 ns         1 A42      -0.335900
     10 C10         -0.5910    -0.1100     0.4770 c          1 A42       0.670100
     11 O11         -0.4720     0.4330    -0.5870 o          1 A42      -0.534100
     12 N12          0.4400    -0.2980     1.3600 ns         1 A42      -0.167000
     13 C13          1.7710    -0.0410     0.9640 ca         1 A42      -0.123000
     14 C14          2.4310     1.0850     1.4200 ca         1 A42      -0.017000
     15 C15          3.7360     1.3470     1.0510 ca         1 A42       0.040000
     16 C16          4.4050     0.4740     0.1930 ca         1 A42       0.198100
     17 C17          3.7460    -0.6610    -0.2740 ca         1 A42      -0.282000
     18 C18          2.4340    -0.9240     0.1080 ca         1 A42       0.186100
     19 O19          1.7390    -2.0010    -0.2830 os         1 A42      -0.336100
     20 C20          2.3030    -2.8690    -1.2370 c3         1 A42       0.147900
     21 O21          5.6630     0.7930    -0.1270 os         1 A42      -0.318100
     22 C22          6.3710    -0.0250    -1.0260 c3         1 A42       0.145900
     23 CL1          4.5420     2.7570     1.6280 cl         1 A42      -0.171000
     24 H3          -3.9350    -1.8210     1.9170 h4         1 A42       0.032100
     25 H6          -4.5830     0.5710    -2.2150 h4         1 A42       0.045100
     26 HN9         -1.7750    -1.1040     1.8500 hn         1 A42       0.154000
     27 HN12         0.3110    -0.8880     2.1670 hn         1 A42       0.149000
     28 H14          1.9070     1.7730     2.0700 ha         1 A42       0.141000
     29 H17          4.2610    -1.3390    -0.9390 ha         1 A42       0.127000
     30 H201         2.5490    -2.3490    -2.1670 h1         1 A42       0.045033
     31 H202         3.2010    -3.3670    -0.8600 h1         1 A42       0.045033
     32 H203         1.5530    -3.6260    -1.4500 h1         1 A42       0.045033
     33 H221         5.8730    -0.0950    -1.9980 h1         1 A42       0.044700
     34 H222         7.3420     0.4410    -1.1660 h1         1 A42       0.044700
     35 H223         6.5240    -1.0350    -0.6320 h1         1 A42       0.044700
@<TRIPOS>BOND
     1     1     2 ar  
     2     1     6 ar  
     3     1     7 1   
     4     2     3 ar  
     5     3     4 ar  
     6     3    24 1   
     7     4     5 ar  
     8     4     9 1   
     9     5     6 ar  
    10     6    25 1   
    11     7     8 3   
    12     9    10 1   
    13     9    26 1   
    14    10    11 2   
    15    10    12 1   
    16    12    13 1   
    17    12    27 1   
    18    13    14 ar  
    19    13    18 ar  
    20    14    15 ar  
    21    14    28 1   
    22    15    16 ar  
    23    15    23 1   
    24    16    17 ar  
    25    16    21 1   
    26    17    18 ar  
    27    17    29 1   
    28    18    19 1   
    29    19    20 1   
    30    20    30 1   
    31    20    31 1   
    32    20    32 1   
    33    21    22 1   
    34    22    33 1   
    35    22    34 1   
    36    22    35 1   
@<TRIPOS>SUBSTRUCTURE
     1 A42         1 TEMP              0 ****  ****    0 ROOT
