@<TRIPOS>MOLECULE
A42
   35    36     1     0     0
SMALL
No Charge or Current Charge


@<TRIPOS>ATOM
      1 C1          -5.7240    -0.8180    -0.5210 ca         1 A42       0.317000
      2 N2          -5.4020    -1.5710     0.5750 nb         1 A42      -0.575000
      3 C3          -4.1150    -1.4460     1.0070 ca         1 A42       0.232900
      4 C4          -3.1660    -0.6070     0.3550 ca         1 A42       0.478900
      5 N5          -3.4930     0.1620    -0.7160 nb         1 A42      -0.657000
      6 C6          -4.7810     0.0380    -1.1520 ca         1 A42       0.380900
      7 C7          -7.0700    -0.9030    -1.0290 cg         1 A42       0.233000
      8 N8          -8.1600    -0.9660    -1.4500 n1         1 A42      -0.433000
      9 N9          -1.8620    -0.4350     0.8490 ns         1 A42      -0.335900
     10 C10         -0.6820    -0.2300     0.1720 c          1 A42       0.670100
     11 O11         -0.5820    -0.2120    -1.0480 o          1 A42      -0.534100
     12 N12          0.3830    -0.0360     1.0390 ns         1 A42      -0.167000
     13 C13          1.7750     0.0940     0.7710 ca         1 A42      -0.123000
     14 C14          2.4780     1.1280     1.4150 ca         1 A42      -0.017000
     15 C15          3.8510     1.3070     1.1850 ca         1 A42       0.040000
     16 C16          4.5430     0.4410     0.3150 ca         1 A42       0.198100
     17 C17          3.8490    -0.6150    -0.3140 ca         1 A42      -0.282000
     18 C18          2.4670    -0.7970    -0.0830 ca         1 A42       0.186100
     19 O19          1.7760    -1.8610    -0.6330 os         1 A42      -0.336100
     20 C20          2.3900    -2.8150    -1.5180 c3         1 A42       0.147900
     21 O21          5.8960     0.6520     0.1140 os         1 A42      -0.318100
     22 C22          6.6890    -0.1760    -0.7540 c3         1 A42       0.145900
     23 Cl1          4.6890     2.6300     2.0000 cl         1 A42      -0.171000
     24 H3          -3.8370    -2.0250     1.8860 h4         1 A42       0.032100
     25 H6          -5.0600     0.6370    -2.0180 h4         1 A42       0.045100
     26 HN9         -1.7870    -0.4840     1.8560 hn         1 A42       0.154000
     27 HN12         0.1360    -0.0010     2.0190 hn         1 A42       0.149000
     28 H14          1.9580     1.8070     2.0860 ha         1 A42       0.141000
     29 H17          4.3820    -1.2950    -0.9670 ha         1 A42       0.127000
     30 H201         2.7830    -2.3190    -2.4140 h1         1 A42       0.045033
     31 H202         3.2110    -3.3420    -1.0150 h1         1 A42       0.045033
     32 H203         1.6540    -3.5620    -1.8390 h1         1 A42       0.045033
     33 H221         6.3080    -0.1420    -1.7820 h1         1 A42       0.044700
     34 H222         7.7290     0.1740    -0.7660 h1         1 A42       0.044700
     35 H223         6.6860    -1.2180    -0.4100 h1         1 A42       0.044700
@<TRIPOS>BOND
     1     1     2 ar  
     2     1     6 ar  
     3     1     7 1   
     4     2     3 ar  
     5     3     4 ar  
     6     3    24 1   
     7     4     5 ar  
     8     4     9 1   
     9     5     6 ar  
    10     6    25 1   
    11     7     8 3   
    12     9    10 1   
    13     9    26 1   
    14    10    11 2   
    15    10    12 1   
    16    12    13 1   
    17    12    27 1   
    18    13    14 ar  
    19    13    18 ar  
    20    14    15 ar  
    21    14    28 1   
    22    15    16 ar  
    23    15    23 1   
    24    16    17 ar  
    25    16    21 1   
    26    17    18 ar  
    27    17    29 1   
    28    18    19 1   
    29    19    20 1   
    30    20    30 1   
    31    20    31 1   
    32    20    32 1   
    33    21    22 1   
    34    22    33 1   
    35    22    34 1   
    36    22    35 1   
@<TRIPOS>SUBSTRUCTURE
     1 A42         1 TEMP              0 ****  ****    0 ROOT
