@<TRIPOS>MOLECULE
A45
   27    29     1     0     0
SMALL
bcc


@<TRIPOS>ATOM
      1 N1          -2.1750     0.0420     5.0810 nv         1 A45      -0.973500
      2 C2          -1.2920    -0.0070     4.0760 ca         1 A45       0.945900
      3 N3           0.0130    -0.1130     4.4790 nb         1 A45      -0.831000
      4 C4           0.9530    -0.1620     3.5890 ca         1 A45       0.784600
      5 O5           2.1940    -0.2640     4.0180 oh         1 A45      -0.594300
      6 C6           0.5990    -0.1020     2.2180 ca         1 A45      -0.472600
      7 N7           1.2900    -0.1240     1.0840 nc         1 A45      -0.238400
      8 N8           0.3650    -0.0300     0.1740 na         1 A45       0.469000
      9 N9          -0.8870     0.0510     0.5980 nc         1 A45      -0.237400
     10 C10         -0.7690     0.0070     1.9220 ca         1 A45       0.330300
     11 N11         -1.7440     0.0560     2.8360 nb         1 A45      -0.762000
     12 C12          0.6800    -0.0140    -1.2080 ca         1 A45      -0.061200
     13 C13          2.0120     0.0100    -1.6040 ca         1 A45      -0.137000
     14 C14          2.3010     0.0240    -2.9580 ca         1 A45      -0.162000
     15 C15          1.2820     0.0180    -3.9000 ca         1 A45      -0.085000
     16 C16         -0.0500    -0.0050    -3.4990 ca         1 A45      -0.136600
     17 C17         -0.3470    -0.0210    -2.1410 ca         1 A45      -0.068000
     18 C18         -1.1800    -0.0130    -4.5270 c          1 A45       0.925200
     19 O19         -0.8380    -0.0010    -5.7230 o          1 A45      -0.814300
     20 O20         -2.3400    -0.0310    -4.0750 o          1 A45      -0.814300
     21 HN11        -1.8690    -0.0360     6.0340 hn         1 A45       0.446300
     22 HN12        -3.1600     0.0770     4.8890 hn         1 A45       0.446300
     23 HO5          2.8230    -0.2890     3.2840 ho         1 A45       0.458000
     24 H13          2.8090     0.0180    -0.8750 ha         1 A45       0.130000
     25 H14          3.3350     0.0440    -3.2760 ha         1 A45       0.114000
     26 H15          1.5200     0.0330    -4.9550 ha         1 A45       0.154000
     27 H17         -1.3780    -0.0410    -1.8210 ha         1 A45       0.184000
@<TRIPOS>BOND
     1     1     2 1   
     2     1    21 1   
     3     1    22 1   
     4     2     3 ar  
     5     2    11 ar  
     6     3     4 ar  
     7     4     5 1   
     8     4     6 ar  
     9     5    23 1   
    10     6     7 2   
    11     6    10 ar  
    12     7     8 1   
    13     8     9 1   
    14     8    12 1   
    15     9    10 2   
    16    10    11 ar  
    17    12    13 ar  
    18    12    17 ar  
    19    13    14 ar  
    20    13    24 1   
    21    14    15 ar  
    22    14    25 1   
    23    15    16 ar  
    24    15    26 1   
    25    16    17 ar  
    26    16    18 1   
    27    17    27 1   
    28    18    19 1   
    29    18    20 1   
@<TRIPOS>SUBSTRUCTURE
     1 A45         1 TEMP              0 ****  ****    0 ROOT
