@<TRIPOS>MOLECULE
A45
   27    29     1     0     0
SMALL
No Charge or Current Charge


@<TRIPOS>ATOM
      1 N1          -1.9760     0.5480     5.2630 nv         1 A45      -1.083900
      2 C2          -1.1480     0.2430     4.2340 ca         1 A45       0.419900
      3 N3          -0.0610    -0.4740     4.5540 nb         1 A45      -0.305000
      4 C4           0.7500    -0.7710     3.5260 ca         1 A45       0.456300
      5 O5           1.8690    -1.4920     3.7650 oh         1 A45      -0.633300
      6 C6           0.4560    -0.3480     2.2200 ca         1 A45      -0.342000
      7 N7           1.1770    -0.5670     1.0640 nc         1 A45      -0.238400
      8 N8           0.3460     0.1020     0.1780 na         1 A45       0.469000
      9 N9          -0.8050     0.7050     0.6610 nc         1 A45      -0.237400
     10 C10         -0.6900     0.3860     1.9960 ca         1 A45       0.002000
     11 N11         -1.5150     0.6920     3.0160 nb         1 A45      -0.236000
     12 C12          0.6610     0.1630    -1.1840 ca         1 A45      -0.061200
     13 C13          1.9190     0.6410    -1.6040 ca         1 A45      -0.119000
     14 C14          2.2290     0.7010    -2.9710 ca         1 A45      -0.144000
     15 C15          1.2900     0.2840    -3.9290 ca         1 A45      -0.067000
     16 C16          0.0220    -0.2000    -3.5320 ca         1 A45      -0.136600
     17 C17         -0.2800    -0.2550    -2.1500 ca         1 A45      -0.050000
     18 C18         -0.9960    -0.6520    -4.5640 c          1 A45       0.714600
     19 O19         -0.6980    -0.5850    -5.7480 o          1 A45      -0.709000
     20 O20         -2.0770    -1.0690    -4.1730 o          1 A45      -0.709000
     21 HN11        -1.8640     0.0330     6.1340 hn         1 A45       0.501500
     22 HN12        -2.9150     0.8740     5.0460 hn         1 A45       0.501500
     23 HO5          2.2930    -1.5840     2.8860 ho         1 A45       0.497000
     24 H13          2.6540     0.9690    -0.8720 ha         1 A45       0.112000
     25 H14          3.2010     1.0710    -3.2910 ha         1 A45       0.096000
     26 H15          1.5530     0.3390    -4.9840 ha         1 A45       0.136000
     27 H17         -1.2500    -0.6260    -1.8220 ha         1 A45       0.166000
@<TRIPOS>BOND
     1     1     2 1   
     2     1    21 1   
     3     1    22 1   
     4     2     3 ar  
     5     2    11 ar  
     6     3     4 ar  
     7     4     5 1   
     8     4     6 ar  
     9     5    23 1   
    10     6     7 2   
    11     6    10 ar  
    12     7     8 1   
    13     8     9 1   
    14     8    12 1   
    15     9    10 2   
    16    10    11 ar  
    17    12    13 ar  
    18    12    17 ar  
    19    13    14 ar  
    20    13    24 1   
    21    14    15 ar  
    22    14    25 1   
    23    15    16 ar  
    24    15    26 1   
    25    16    17 ar  
    26    16    18 1   
    27    17    27 1   
    28    18    19 1   
    29    18    20 1   
@<TRIPOS>SUBSTRUCTURE
     1 A45         1 TEMP              0 ****  ****    0 ROOT
