@<TRIPOS>MOLECULE
A46
   38    40     1     0     0
SMALL
bcc


@<TRIPOS>ATOM
      1 C4           2.0770    -0.2790    -0.1940 ca         1 A46       0.070600
      2 N1           0.6770    -0.3530    -0.1930 ns         1 A46      -0.472100
      3 C6          -0.2070     0.6740    -0.2390 c          1 A46       0.709300
      4 C7          -1.6370     0.3120    -0.1540 cc         1 A46      -0.155300
      5 O1           0.1160     1.8460    -0.3430 o          1 A46      -0.566100
      6 N2          -2.1510    -0.9600    -0.0730 na         1 A46      -0.164400
      7 C8          -2.6670     1.2160    -0.1400 cd         1 A46      -0.091200
      8 C11         -3.5070    -0.8920    -0.0070 ca         1 A46      -0.032200
      9 C12         -3.8720     0.4710    -0.0460 ca         1 A46      -0.117800
     10 C13         -4.4560    -1.9100     0.0820 ca         1 A46      -0.145000
     11 C14         -5.2270     0.8280     0.0100 ca         1 A46      -0.054000
     12 C15         -5.7820    -1.5430     0.1360 ca         1 A46      -0.088000
     13 C16         -6.1490    -0.1860     0.1010 ca         1 A46      -0.005600
     14 CL1         -7.8420     0.2060     0.1740 cl         1 A46      -0.115400
     15 C2           2.7680    -1.3520     0.3690 ca         1 A46      -0.158500
     16 C1           4.1510    -1.3720     0.3740 ca         1 A46      -0.091000
     17 C5           4.8870    -0.3260    -0.1700 ca         1 A46      -0.137300
     18 C9           4.1890     0.7360    -0.7350 ca         1 A46      -0.091000
     19 C10          2.8020     0.7700    -0.7550 ca         1 A46      -0.158500
     20 C3           6.3990    -0.3450    -0.1200 c3         1 A46       0.198400
     21 C17          6.8760     0.4770     1.0690 c3         1 A46       0.103400
     22 O2           6.9930     0.0600    -1.3310 oh         1 A46      -0.572800
     23 O3           8.2720     0.3530     1.1850 oh         1 A46      -0.587800
     24 HN1          0.3210    -1.2750    -0.0030 hn         1 A46       0.308500
     25 HN2         -1.6390    -1.8270    -0.0730 hn         1 A46       0.297700
     26 H8          -2.5680     2.2880    -0.1890 ha         1 A46       0.177000
     27 H13         -4.1700    -2.9540     0.1090 ha         1 A46       0.139000
     28 H14         -5.5310     1.8660    -0.0160 ha         1 A46       0.154000
     29 H15         -6.5480    -2.3030     0.2060 ha         1 A46       0.148000
     30 H2           2.2190    -2.1810     0.8010 ha         1 A46       0.145000
     31 H1           4.6630    -2.2200     0.8130 ha         1 A46       0.132500
     32 H9           4.7200     1.5680    -1.1820 ha         1 A46       0.132500
     33 H10          2.3050     1.6070    -1.2170 ha         1 A46       0.145000
     34 H3           6.7180    -1.3810     0.0360 h1         1 A46       0.086700
     35 H17          6.5680     1.5240     0.9260 h1         1 A46       0.025200
     36 H17A         6.3560     0.1180     1.9660 h1         1 A46       0.025200
     37 HO2          6.9640     1.0200    -1.3960 ho         1 A46       0.401000
     38 HO3          8.5560     0.8720     1.9420 ho         1 A46       0.406000
@<TRIPOS>BOND
     1     1     2 1   
     2     1    15 ar  
     3     1    19 ar  
     4     2     3 1   
     5     2    24 1   
     6     3     4 1   
     7     3     5 2   
     8     4     6 1   
     9     4     7 2   
    10     6     8 1   
    11     6    25 1   
    12     7     9 1   
    13     7    26 1   
    14     8     9 ar  
    15     8    10 ar  
    16     9    11 ar  
    17    10    12 ar  
    18    10    27 1   
    19    11    13 ar  
    20    11    28 1   
    21    12    13 ar  
    22    12    29 1   
    23    13    14 1   
    24    15    16 ar  
    25    15    30 1   
    26    16    17 ar  
    27    16    31 1   
    28    17    18 ar  
    29    17    20 1   
    30    18    19 ar  
    31    18    32 1   
    32    19    33 1   
    33    20    21 1   
    34    20    22 1   
    35    20    34 1   
    36    21    23 1   
    37    21    35 1   
    38    21    36 1   
    39    22    37 1   
    40    23    38 1   
@<TRIPOS>SUBSTRUCTURE
     1 A46         1 TEMP              0 ****  ****    0 ROOT
