@<TRIPOS>MOLECULE
A46
   38    40     1     0     0
SMALL
No Charge or Current Charge


@<TRIPOS>ATOM
      1 C4           2.0650    -0.1570    -0.1100 ca         1 A46      -0.022000
      2 N1           0.6420    -0.1620    -0.0900 ns         1 A46      -0.146000
      3 C6          -0.3030     0.8440    -0.2560 c          1 A46       0.642300
      4 C7          -1.7030     0.3450    -0.1570 cc         1 A46      -0.155300
      5 O1          -0.0330     2.0230    -0.4620 o          1 A46      -0.566100
      6 N2          -2.2350    -0.9530     0.0720 na         1 A46      -0.214700
      7 C8          -2.8290     1.1540    -0.2860 cd         1 A46      -0.141200
      8 C11         -3.6200    -0.9060     0.0770 ca         1 A46      -0.032200
      9 C12         -4.0330     0.3770    -0.1400 ca         1 A46      -0.117800
     10 C13         -4.5380    -1.9480     0.2660 ca         1 A46      -0.127000
     11 C14         -5.3860     0.7340    -0.1890 ca         1 A46      -0.036000
     12 C15         -5.9140    -1.6290     0.2240 ca         1 A46      -0.070000
     13 C16         -6.3350    -0.2950    -0.0020 ca         1 A46       0.086000
     14 Cl1         -8.0530     0.0830    -0.0510 cl         1 A46      -0.207000
     15 C2           2.7230    -1.3740     0.1420 ca         1 A46      -0.140500
     16 C1           4.1270    -1.4490     0.1380 ca         1 A46      -0.073000
     17 C5           4.9010    -0.3010    -0.1200 ca         1 A46      -0.137300
     18 C9           4.2450     0.9190    -0.3780 ca         1 A46      -0.073000
     19 C10          2.8410     0.9930    -0.3740 ca         1 A46      -0.140500
     20 C3           6.4280    -0.3880    -0.1160 c3         1 A46       0.221600
     21 C17          7.0790     0.5150     0.9690 c3         1 A46       0.126600
     22 O2           6.9440    -0.0170    -1.4010 oh         1 A46      -0.635000
     23 O3           8.5140     0.4310     0.8960 oh         1 A46      -0.650000
     24 HN1          0.2450    -1.0760     0.0780 hn         1 A46       0.142000
     25 HN2         -1.6940    -1.8000     0.2130 hn         1 A46       0.348000
     26 H8          -2.7980     2.2260    -0.4710 ha         1 A46       0.227000
     27 H13         -4.2050    -2.9690     0.4390 ha         1 A46       0.121000
     28 H14         -5.6960     1.7610    -0.3630 ha         1 A46       0.136000
     29 H15         -6.6560    -2.4110     0.3660 ha         1 A46       0.130000
     30 H2           2.1450    -2.2730     0.3450 ha         1 A46       0.127000
     31 H1           4.6100    -2.4030     0.3370 ha         1 A46       0.114500
     32 H9           4.8240     1.8160    -0.5890 ha         1 A46       0.114500
     33 H10          2.3800     1.9530    -0.5810 ha         1 A46       0.127000
     34 H3           6.7170    -1.4240     0.1120 h1         1 A46       0.086700
     35 H17          6.7530     1.5540     0.8280 h1         1 A46       0.025200
     36 H17A         6.7290     0.1890     1.9570 h1         1 A46       0.025200
     37 HO2          7.8900     0.1940    -1.2320 ho         1 A46       0.440000
     38 HO3          8.8740     0.9760     1.6330 ho         1 A46       0.445000
@<TRIPOS>BOND
     1     1     2 1   
     2     1    15 ar  
     3     1    19 ar  
     4     2     3 1   
     5     2    24 1   
     6     3     4 1   
     7     3     5 2   
     8     4     6 1   
     9     4     7 2   
    10     6     8 1   
    11     6    25 1   
    12     7     9 1   
    13     7    26 1   
    14     8     9 ar  
    15     8    10 ar  
    16     9    11 ar  
    17    10    12 ar  
    18    10    27 1   
    19    11    13 ar  
    20    11    28 1   
    21    12    13 ar  
    22    12    29 1   
    23    13    14 1   
    24    15    16 ar  
    25    15    30 1   
    26    16    17 ar  
    27    16    31 1   
    28    17    18 ar  
    29    17    20 1   
    30    18    19 ar  
    31    18    32 1   
    32    19    33 1   
    33    20    21 1   
    34    20    22 1   
    35    20    34 1   
    36    21    23 1   
    37    21    35 1   
    38    21    36 1   
    39    22    37 1   
    40    23    38 1   
@<TRIPOS>SUBSTRUCTURE
     1 A46         1 TEMP              0 ****  ****    0 ROOT
