@<TRIPOS>MOLECULE
A49
   62    65     1     0     0
SMALL
No Charge or Current Charge


@<TRIPOS>ATOM
      1 O1          -3.1890     4.6080    -1.2480 o          1 A49      -0.627100
      2 C13         -2.0950     4.1230    -1.0080 c          1 A49       0.631100
      3 N1          -1.9950     2.8500    -0.5950 nt         1 A49      -0.607000
      4 C31         -0.7790     4.8760    -1.1270 cx         1 A49      -0.233000
      5 C10         -0.8610     6.3890    -1.2750 cx         1 A49      -0.099900
      6 C12         -0.4050     5.7890     0.0310 cx         1 A49      -0.099900
      7 C26          0.3110     4.1430    -1.9140 c3         1 A49       0.212800
      8 N2           0.7670     2.8550    -1.3280 n3         1 A49      -0.757600
      9 C17          1.5520     2.0540    -2.3070 c6         1 A49       0.171800
     10 C16          1.8950     0.6570    -1.7450 c6         1 A49      -0.094400
     11 C19          1.5020     3.0090    -0.0390 c6         1 A49       0.171800
     12 C20          1.8500     1.6370     0.5760 c6         1 A49      -0.094400
     13 C14          2.6800     0.7850    -0.4130 c6         1 A49       0.127700
     14 N12          3.1240    -0.5150     0.1830 n          1 A49      -0.376800
     15 C15          4.4190    -0.3990     0.8740 cx         1 A49       0.037700
     16 C25          5.7470    -0.6690     0.2080 cx         1 A49      -0.133400
     17 C24          5.2740    -1.5580     1.3350 cx         1 A49      -0.133400
     18 C11          2.6650    -1.7350    -0.3700 c          1 A49       0.616700
     19 O13          3.4080    -2.4760    -1.0040 o          1 A49      -0.586100
     20 C4           1.2360    -2.1330    -0.0730 ca         1 A49      -0.119600
     21 C3           0.5740    -3.0560    -0.9060 ca         1 A49      -0.080000
     22 C2          -0.7550    -3.4330    -0.6490 ca         1 A49      -0.092500
     23 C5           0.5490    -1.6270     1.0490 ca         1 A49      -0.080000
     24 C6          -0.7800    -2.0040     1.3070 ca         1 A49      -0.092500
     25 C1          -1.4660    -2.9010     0.4530 ca         1 A49      -0.120300
     26 C7          -2.9280    -3.3260     0.7540 c3         1 A49       0.188300
     27 C9          -3.7270    -3.6250    -0.5450 c3         1 A49      -0.088100
     28 O10         -3.6210    -2.2240     1.3720 oh         1 A49      -0.642000
     29 C8          -2.9410    -4.5700     1.7210 c3         1 A49       0.266000
     30 F23         -4.2040    -4.9640     2.0090 f          1 A49      -0.111000
     31 F21         -2.2990    -5.6290     1.1720 f          1 A49      -0.111000
     32 F22         -2.3270    -4.2860     2.8950 f          1 A49      -0.111000
     33 HN1         -2.8190     2.2760    -0.5190 hn         1 A49       0.331000
     34 HN1A        -1.0640     2.4580    -0.5190 hn         1 A49       0.331000
     35 H10         -0.1120     6.8870    -1.8870 hc         1 A49       0.081200
     36 H10A        -1.8380     6.8660    -1.2920 hc         1 A49       0.081200
     37 H12         -1.0840     5.8430     0.8780 hc         1 A49       0.081200
     38 H12A         0.6460     5.8960     0.2880 hc         1 A49       0.081200
     39 H26         -0.0900     3.9610    -2.9210 h1         1 A49       0.040700
     40 H26A         1.1750     4.8110    -2.0420 h1         1 A49       0.040700
     41 H17          0.9820     1.9250    -3.2380 h1         1 A49       0.040200
     42 H17A         2.4840     2.5780    -2.5690 h1         1 A49       0.040200
     43 H16          0.9610     0.1000    -1.5970 hc         1 A49       0.059700
     44 H16A         2.4880     0.1050    -2.4860 hc         1 A49       0.059700
     45 H19          2.4270     3.5860    -0.1910 h1         1 A49       0.040200
     46 H19A         0.8930     3.5570     0.6920 h1         1 A49       0.040200
     47 H20          2.4030     1.7860     1.5120 hc         1 A49       0.059700
     48 H20A         0.9170     1.1230     0.8360 hc         1 A49       0.059700
     49 H14          3.5880     1.3600    -0.6470 h1         1 A49       0.049700
     50 H15          4.3610     0.4550     1.5500 h1         1 A49       0.073700
     51 H25          5.7400    -1.0770    -0.7990 hc         1 A49       0.082200
     52 H25A         6.5600     0.0230     0.4120 hc         1 A49       0.082200
     53 H24          5.7700    -1.4610     2.2980 hc         1 A49       0.082200
     54 H24A         4.9650    -2.5700     1.0900 hc         1 A49       0.082200
     55 H3           1.0880    -3.4800    -1.7660 ha         1 A49       0.127500
     56 H2          -1.2170    -4.1530    -1.3190 ha         1 A49       0.120500
     57 H5           1.0480    -0.9580     1.7440 ha         1 A49       0.127500
     58 H6          -1.2650    -1.5950     2.1900 ha         1 A49       0.120500
     59 H9          -3.3940    -4.5520    -1.0250 hc         1 A49       0.063033
     60 H9A         -4.7960    -3.7380    -0.3280 hc         1 A49       0.063033
     61 H9B         -3.6170    -2.8040    -1.2630 hc         1 A49       0.063033
     62 HO10        -3.3130    -2.1730     2.3010 ho         1 A49       0.463000
@<TRIPOS>BOND
     1     1     2 2   
     2     2     3 1   
     3     2     4 1   
     4     3    33 1   
     5     3    34 1   
     6     4     5 1   
     7     4     6 1   
     8     4     7 1   
     9     5     6 1   
    10     5    35 1   
    11     5    36 1   
    12     6    37 1   
    13     6    38 1   
    14     7     8 1   
    15     7    39 1   
    16     7    40 1   
    17     8     9 1   
    18     8    11 1   
    19     9    10 1   
    20     9    41 1   
    21     9    42 1   
    22    10    13 1   
    23    10    43 1   
    24    10    44 1   
    25    11    12 1   
    26    11    45 1   
    27    11    46 1   
    28    12    13 1   
    29    12    47 1   
    30    12    48 1   
    31    13    14 1   
    32    13    49 1   
    33    14    15 1   
    34    14    18 1   
    35    15    16 1   
    36    15    17 1   
    37    15    50 1   
    38    16    17 1   
    39    16    51 1   
    40    16    52 1   
    41    17    53 1   
    42    17    54 1   
    43    18    19 2   
    44    18    20 1   
    45    20    21 ar  
    46    20    23 ar  
    47    21    22 ar  
    48    21    55 1   
    49    22    25 ar  
    50    22    56 1   
    51    23    24 ar  
    52    23    57 1   
    53    24    25 ar  
    54    24    58 1   
    55    25    26 1   
    56    26    27 1   
    57    26    28 1   
    58    26    29 1   
    59    27    59 1   
    60    27    60 1   
    61    27    61 1   
    62    28    62 1   
    63    29    30 1   
    64    29    31 1   
    65    29    32 1   
@<TRIPOS>SUBSTRUCTURE
     1 A49         1 TEMP              0 ****  ****    0 ROOT
