@<TRIPOS>MOLECULE
A49
   62    65     1     0     0
SMALL
abcg2


@<TRIPOS>ATOM
      1 O1          -3.2030     3.3580     0.5130 o          1 A49      -0.627100
      2 C13         -2.1980     2.9600    -0.0660 c          1 A49       0.631100
      3 N1          -1.8780     1.6610    -0.1640 nt         1 A49      -0.607000
      4 C31         -1.2360     3.9180    -0.7190 cx         1 A49      -0.233000
      5 C10         -1.8090     5.2710    -1.0540 cx         1 A49      -0.099900
      6 C12         -0.8920     5.1390     0.1050 cx         1 A49      -0.099900
      7 C26         -0.1990     3.3960    -1.6980 c3         1 A49       0.212800
      8 N2           0.6350     2.3300    -1.1740 n3         1 A49      -0.757600
      9 C17          1.3560     1.5990    -2.2010 c6         1 A49       0.171800
     10 C16          1.8770     0.2940    -1.6170 c6         1 A49      -0.094400
     11 C19          1.5330     2.7370    -0.1080 c6         1 A49       0.171800
     12 C20          2.1310     1.5130     0.5700 c6         1 A49      -0.094400
     13 C14          2.8070     0.5970    -0.4460 c6         1 A49       0.127700
     14 N12          3.4850    -0.5680     0.1660 n          1 A49      -0.376800
     15 C15          4.8900    -0.3240     0.4200 cx         1 A49       0.037700
     16 C25          6.0310    -1.1030    -0.1580 cx         1 A49      -0.133400
     17 C24          5.7910    -1.0920     1.3310 cx         1 A49      -0.133400
     18 C11          2.9540    -1.8000     0.3260 c          1 A49       0.616700
     19 O13          3.6290    -2.8080     0.4890 o          1 A49      -0.586100
     20 C4           1.4640    -1.9380     0.3550 ca         1 A49      -0.119600
     21 C3           0.8170    -2.7080    -0.6060 ca         1 A49      -0.080000
     22 C2          -0.5640    -2.8000    -0.6140 ca         1 A49      -0.092500
     23 C5           0.7150    -1.3710     1.3740 ca         1 A49      -0.080000
     24 C6          -0.6680    -1.4790     1.3750 ca         1 A49      -0.092500
     25 C1          -1.3310    -2.1560     0.3580 ca         1 A49      -0.120300
     26 C7          -2.8580    -2.1700     0.2950 c3         1 A49       0.188300
     27 C9          -3.3560    -1.9670    -1.1340 c3         1 A49      -0.088100
     28 O10         -3.4360    -1.1350     1.0480 oh         1 A49      -0.642000
     29 C8          -3.3680    -3.5090     0.8550 c3         1 A49       0.266000
     30 F23         -4.6990    -3.5980     0.8130 f          1 A49      -0.111000
     31 F21         -2.8800    -4.5540     0.1810 f          1 A49      -0.111000
     32 F22         -3.0050    -3.6620     2.1360 f          1 A49      -0.111000
     33 HN1         -2.4400     0.9690     0.3070 hn         1 A49       0.331000
     34 HN1A        -0.9450     1.4190    -0.4920 hn         1 A49       0.331000
     35 H10         -1.4380     5.7480    -1.9530 hc         1 A49       0.081200
     36 H10A        -2.8610     5.4290    -0.8610 hc         1 A49       0.081200
     37 H12         -1.3060     5.2100     1.1030 hc         1 A49       0.081200
     38 H12A         0.1170     5.5210     0.0100 hc         1 A49       0.081200
     39 H26         -0.7170     3.0030    -2.5770 h1         1 A49       0.040700
     40 H26A         0.3970     4.2530    -2.0510 h1         1 A49       0.040700
     41 H17          0.6750     1.3760    -3.0240 h1         1 A49       0.040200
     42 H17A         2.1830     2.1970    -2.6190 h1         1 A49       0.040200
     43 H16          1.0060    -0.2820    -1.3120 hc         1 A49       0.059700
     44 H16A         2.4060    -0.2800    -2.3810 hc         1 A49       0.059700
     45 H19          2.3320     3.3930    -0.4940 h1         1 A49       0.040200
     46 H19A         0.9810     3.3130     0.6330 h1         1 A49       0.040200
     47 H20          2.8480     1.8300     1.3310 hc         1 A49       0.059700
     48 H20A         1.3270     0.9830     1.0790 hc         1 A49       0.059700
     49 H14          3.6270     1.1700    -0.8900 h1         1 A49       0.049700
     50 H15          5.0590     0.7440     0.4670 h1         1 A49       0.073700
     51 H25          5.8070    -2.0230    -0.6780 hc         1 A49       0.082200
     52 H25A         6.8660    -0.5470    -0.5630 hc         1 A49       0.082200
     53 H24          6.4490    -0.4940     1.9500 hc         1 A49       0.082200
     54 H24A         5.4580    -2.0070     1.7930 hc         1 A49       0.082200
     55 H3           1.3860    -3.1870    -1.3920 ha         1 A49       0.127500
     56 H2          -1.0320    -3.3580    -1.4130 ha         1 A49       0.120500
     57 H5           1.2030    -0.8350     2.1770 ha         1 A49       0.127500
     58 H6          -1.2030    -0.9920     2.1780 ha         1 A49       0.120500
     59 H9          -3.0790    -2.7830    -1.7960 hc         1 A49       0.063033
     60 H9A         -4.4400    -1.8690    -1.1550 hc         1 A49       0.063033
     61 H9B         -2.9240    -1.0510    -1.5360 hc         1 A49       0.063033
     62 HO10        -3.2080    -1.2000     1.9830 ho         1 A49       0.463000
@<TRIPOS>BOND
     1     1     2 2   
     2     2     3 1   
     3     2     4 1   
     4     3    33 1   
     5     3    34 1   
     6     4     5 1   
     7     4     6 1   
     8     4     7 1   
     9     5     6 1   
    10     5    35 1   
    11     5    36 1   
    12     6    37 1   
    13     6    38 1   
    14     7     8 1   
    15     7    39 1   
    16     7    40 1   
    17     8     9 1   
    18     8    11 1   
    19     9    10 1   
    20     9    41 1   
    21     9    42 1   
    22    10    13 1   
    23    10    43 1   
    24    10    44 1   
    25    11    12 1   
    26    11    45 1   
    27    11    46 1   
    28    12    13 1   
    29    12    47 1   
    30    12    48 1   
    31    13    14 1   
    32    13    49 1   
    33    14    15 1   
    34    14    18 1   
    35    15    16 1   
    36    15    17 1   
    37    15    50 1   
    38    16    17 1   
    39    16    51 1   
    40    16    52 1   
    41    17    53 1   
    42    17    54 1   
    43    18    19 2   
    44    18    20 1   
    45    20    21 ar  
    46    20    23 ar  
    47    21    22 ar  
    48    21    55 1   
    49    22    25 ar  
    50    22    56 1   
    51    23    24 ar  
    52    23    57 1   
    53    24    25 ar  
    54    24    58 1   
    55    25    26 1   
    56    26    27 1   
    57    26    28 1   
    58    26    29 1   
    59    27    59 1   
    60    27    60 1   
    61    27    61 1   
    62    28    62 1   
    63    29    30 1   
    64    29    31 1   
    65    29    32 1   
@<TRIPOS>SUBSTRUCTURE
     1 A49         1 TEMP              0 ****  ****    0 ROOT
