@<TRIPOS>MOLECULE
A4B
   31    32     1     0     0
SMALL
abcg2


@<TRIPOS>ATOM
      1 C4           3.1280     2.2090     0.6830 ca         1 A4B      -0.153000
      2 C3           4.0100     1.2260     0.2640 ca         1 A4B      -0.065000
      3 C2           3.5410     0.0480    -0.3060 ca         1 A4B      -0.202000
      4 C1           2.1720    -0.1530    -0.4580 ca         1 A4B       0.165100
      5 C13         -0.8990    -0.3500     0.5180 ca         1 A4B       0.140000
      6 CL          -0.0660    -1.3900     1.6290 cl         1 A4B      -0.204000
      7 C12         -2.2670    -0.5100     0.3750 ca         1 A4B      -0.086000
      8 C10         -2.9830     0.3230    -0.4790 ca         1 A4B      -0.078300
      9 N           -5.1170    -0.4580     0.4610 n8         1 A4B      -1.001200
     10 C9          -2.2940     1.3210    -1.1620 ca         1 A4B      -0.116000
     11 C8          -0.9240     1.4640    -1.0140 ca         1 A4B      -0.095000
     12 C7          -0.1890     0.6290    -0.1740 cp         1 A4B      -0.012000
     13 C6           1.2680     0.8260    -0.0190 cp         1 A4B      -0.077000
     14 O            1.6290    -1.2420    -1.0260 os         1 A4B      -0.330100
     15 C            2.4720    -2.3250    -1.3610 c3         1 A4B       0.148900
     16 C5           1.7620     1.9990     0.5350 ca         1 A4B      -0.059000
     17 H1           3.4940     3.1260     1.1240 ha         1 A4B       0.116000
     18 H2          -4.8920     1.1030    -0.9950 h1         1 A4B       0.036200
     19 H3          -4.6060    -0.5320    -1.5400 h1         1 A4B       0.036200
     20 H4           5.0770     1.3690     0.3740 ha         1 A4B       0.111000
     21 H5           4.2540    -0.6970    -0.6350 ha         1 A4B       0.117000
     22 H6          -2.7860    -1.2780     0.9320 ha         1 A4B       0.147000
     23 H7          -5.1740     0.2170     1.2130 hn         1 A4B       0.398500
     24 H8          -6.0710    -0.6930     0.2200 hn         1 A4B       0.398500
     25 H10         -2.8310     1.9940    -1.8200 ha         1 A4B       0.111000
     26 H11         -0.4050     2.2420    -1.5600 ha         1 A4B       0.118000
     27 H12          3.1970    -2.0580    -2.1350 h1         1 A4B       0.041033
     28 H13          3.0120    -2.7050    -0.4900 h1         1 A4B       0.041033
     29 H14          1.8270    -3.1110    -1.7450 h1         1 A4B       0.041033
     30 H15          1.0620     2.7550     0.8690 ha         1 A4B       0.117000
     31 C11         -4.4650     0.1400    -0.6880 c3         1 A4B       0.198100
@<TRIPOS>BOND
     1     1     2 ar  
     2     1    16 ar  
     3     1    17 1   
     4     2     3 ar  
     5     2    20 1   
     6     3     4 ar  
     7     3    21 1   
     8     4    13 ar  
     9     4    14 1   
    10     5     6 1   
    11     5     7 ar  
    12     5    12 ar  
    13     7     8 ar  
    14     7    22 1   
    15     8    10 ar  
    16     8    31 1   
    17     9    23 1   
    18     9    24 1   
    19     9    31 1   
    20    10    11 ar  
    21    10    25 1   
    22    11    12 ar  
    23    11    26 1   
    24    12    13 1   
    25    13    16 ar  
    26    14    15 1   
    27    15    27 1   
    28    15    28 1   
    29    15    29 1   
    30    16    30 1   
    31    18    31 1   
    32    19    31 1   
@<TRIPOS>SUBSTRUCTURE
     1 A4B         1 TEMP              0 ****  ****    0 ROOT
