@<TRIPOS>MOLECULE
A4B
   31    32     1     0     0
SMALL
No Charge or Current Charge


@<TRIPOS>ATOM
      1 C4           3.0740     2.1950     0.8350 ca         1 A4B      -0.153000
      2 C3           4.0200     1.2790     0.3510 ca         1 A4B      -0.065000
      3 C2           3.5960     0.1080    -0.2990 ca         1 A4B      -0.202000
      4 C1           2.2160    -0.1500    -0.4590 ca         1 A4B       0.165100
      5 C13         -0.8790    -0.5390     0.5640 ca         1 A4B       0.140000
      6 Cl          -0.0120    -1.6110     1.6660 cl         1 A4B      -0.204000
      7 C12         -2.2600    -0.7390     0.3970 ca         1 A4B      -0.086000
      8 C10         -3.0120     0.1080    -0.4400 ca         1 A4B      -0.078300
      9 N           -5.2720     0.4030     0.5300 n8         1 A4B      -1.001200
     10 C9          -2.3670     1.1660    -1.1060 ca         1 A4B      -0.116000
     11 C8          -0.9860     1.3700    -0.9420 ca         1 A4B      -0.095000
     12 C7          -0.2160     0.5190    -0.1140 cp         1 A4B      -0.012000
     13 C6           1.2490     0.7630     0.0380 cp         1 A4B      -0.077000
     14 O            1.7450    -1.2720    -1.1160 os         1 A4B      -0.330100
     15 C            2.6240    -2.2860    -1.6310 c3         1 A4B       0.148900
     16 C5           1.7010     1.9410     0.6780 ca         1 A4B      -0.059000
     17 H1           3.4040     3.1040     1.3350 ha         1 A4B       0.116000
     18 H2          -4.8560     0.3770    -1.5330 h1         1 A4B       0.036200
     19 H3          -4.7090    -1.1970    -0.7160 h1         1 A4B       0.036200
     20 H4           5.0830     1.4790     0.4740 ha         1 A4B       0.111000
     21 H5           4.3480    -0.5800    -0.6740 ha         1 A4B       0.117000
     22 H6          -2.7510    -1.5510     0.9280 ha         1 A4B       0.147000
     23 H7          -5.1290     1.4180     0.5820 hn         1 A4B       0.398500
     24 H8          -6.2760     0.3090     0.3310 hn         1 A4B       0.398500
     25 H10         -2.9340     1.8320    -1.7530 ha         1 A4B       0.111000
     26 H11         -0.5010     2.1900    -1.4650 ha         1 A4B       0.118000
     27 H12          3.3000    -1.8690    -2.3880 h1         1 A4B       0.041033
     28 H13          3.2240    -2.7270    -0.8250 h1         1 A4B       0.041033
     29 H14          2.0420    -3.0890    -2.1010 h1         1 A4B       0.041033
     30 H15          0.9770     2.6570     1.0600 ha         1 A4B       0.117000
     31 C11         -4.5080    -0.1210    -0.6170 c3         1 A4B       0.198100
@<TRIPOS>BOND
     1     1     2 ar  
     2     1    16 ar  
     3     1    17 1   
     4     2     3 ar  
     5     2    20 1   
     6     3     4 ar  
     7     3    21 1   
     8     4    13 ar  
     9     4    14 1   
    10     5     6 1   
    11     5     7 ar  
    12     5    12 ar  
    13     7     8 ar  
    14     7    22 1   
    15     8    10 ar  
    16     8    31 1   
    17     9    23 1   
    18     9    24 1   
    19     9    31 1   
    20    10    11 ar  
    21    10    25 1   
    22    11    12 ar  
    23    11    26 1   
    24    12    13 1   
    25    13    16 ar  
    26    14    15 1   
    27    15    27 1   
    28    15    28 1   
    29    15    29 1   
    30    16    30 1   
    31    18    31 1   
    32    19    31 1   
@<TRIPOS>SUBSTRUCTURE
     1 A4B         1 TEMP              0 ****  ****    0 ROOT
