@<TRIPOS>MOLECULE
A4C
  102   107     1     0     0
SMALL
No Charge or Current Charge


@<TRIPOS>ATOM
      1 OD1         10.7520     0.3580    -1.2420 o          1 A4C      -0.580600
      2 CD1         10.0610     1.1360    -0.5960 c          1 A4C       0.631700
      3 ND1         10.6440     2.0400     0.2670 ns         1 A4C      -0.507900
      4 CD2         12.0870     2.1280     0.5240 c3         1 A4C       0.102500
      5 CD3         12.4450     3.2710     1.5070 c3         1 A4C       0.147800
      6 ND2         13.8790     3.3510     1.8920 n3         1 A4C      -0.710100
      7 CD8         14.7930     3.5980     0.7500 c3         1 A4C       0.149100
      8 CD7         14.1070     4.3090     2.9970 c3         1 A4C       0.149100
      9 C4           8.5620     1.2660    -0.7470 ca         1 A4C      -0.140100
     10 C3           7.9810     2.5530    -0.6740 ca         1 A4C      -0.057000
     11 C2           6.6020     2.7230    -0.8230 ca         1 A4C      -0.138000
     12 C12          7.7350     0.1320    -0.9660 ca         1 A4C       0.345000
     13 C11          6.3360     0.3150    -1.1240 ca         1 A4C      -0.154000
     14 C1           5.7810     1.6150    -1.0490 ca         1 A4C      -0.065500
     15 N10          8.2710    -1.1080    -0.9840 nb         1 A4C      -0.686500
     16 C14          7.5030    -2.1940    -1.1880 ca         1 A4C       0.327000
     17 C5           8.1150    -3.4620    -1.2170 ca         1 A4C      -0.096500
     18 C6           7.3640    -4.6270    -1.4440 ca         1 A4C      -0.089500
     19 C7           5.9820    -4.5310    -1.6520 ca         1 A4C      -0.125000
     20 C13          6.1090    -2.1000    -1.3790 ca         1 A4C      -0.147000
     21 C8           5.3550    -3.2760    -1.6230 ca         1 A4C      -0.085000
     22 C9           5.5180    -0.8200    -1.3330 ca         1 A4C       0.384000
     23 N9           4.1320    -0.6690    -1.4910 nu         1 A4C      -0.953200
     24 CX1          3.1620    -0.9900    -0.4340 c3         1 A4C       0.213300
     25 CX2          1.7230    -0.7990    -0.9510 c3         1 A4C      -0.088900
     26 CX3          0.6540    -1.1310     0.1130 c3         1 A4C      -0.074400
     27 OD2        -10.5950     0.8370     1.2810 o          1 A4C      -0.580600
     28 ND3        -10.1350     2.7630     0.1800 ns         1 A4C      -0.507900
     29 CD5        -11.5250     3.1600    -0.0850 c3         1 A4C       0.102500
     30 CD6        -12.1930     2.3130    -1.2000 c3         1 A4C       0.147800
     31 ND4        -13.5500     2.7650    -1.6110 n3         1 A4C      -0.710100
     32 CD0        -14.0270     2.0630    -2.8240 c3         1 A4C       0.149100
     33 CD9        -14.5500     2.7180    -0.5170 c3         1 A4C       0.149100
     34 C25         -8.2640     1.4220     0.9900 ca         1 A4C      -0.140100
     35 C26         -7.4660     2.5660     1.2200 ca         1 A4C      -0.057000
     36 C15         -6.0870     2.4450     1.4150 ca         1 A4C      -0.138000
     37 C27         -7.6570     0.1380     0.9340 ca         1 A4C       0.345000
     38 C16         -6.2530     0.0280     1.1140 ca         1 A4C      -0.154000
     39 C17         -5.4820     1.1870     1.3690 ca         1 A4C      -0.065500
     40 N12         -8.4050    -0.9590     0.6850 nb         1 A4C      -0.686500
     41 C18         -7.8460    -2.1820     0.6300 ca         1 A4C       0.327000
     42 C19         -8.6730    -3.2940     0.3820 ca         1 A4C      -0.096500
     43 C20         -8.1430    -4.5920     0.3080 ca         1 A4C      -0.089500
     44 C21         -6.7660    -4.7890     0.4780 ca         1 A4C      -0.125000
     45 C22         -6.4610    -2.3820     0.8080 ca         1 A4C      -0.147000
     46 C23         -5.9260    -3.6930     0.7250 ca         1 A4C      -0.085000
     47 C24         -5.6530    -1.2510     1.0440 ca         1 A4C       0.384000
     48 N11         -4.2680    -1.4070     1.2010 nu         1 A4C      -0.953200
     49 CX4         -3.2980    -1.0830     0.1460 c3         1 A4C       0.213300
     50 CX5         -1.8590    -1.2750     0.6620 c3         1 A4C      -0.088900
     51 CX6         -0.7900    -0.9420    -0.4010 c3         1 A4C      -0.074400
     52 HND1        10.0190     2.6530     0.7770 hn         1 A4C       0.311500
     53 HD21        12.6000     2.2870    -0.4330 h1         1 A4C       0.060700
     54 HD22        12.4280     1.1730     0.9430 h1         1 A4C       0.060700
     55 HD31        11.8400     3.1250     2.4120 h1         1 A4C       0.031200
     56 HD32        12.1270     4.2240     1.0610 h1         1 A4C       0.031200
     57 HD81        14.7230     2.7960     0.0040 h1         1 A4C       0.032117
     58 HD82        14.5560     4.5510     0.2580 h1         1 A4C       0.032117
     59 HD83        15.8360     3.6400     1.0910 h1         1 A4C       0.032117
     60 HD71        13.8620     5.3340     2.6840 h1         1 A4C       0.032117
     61 HD72        13.4840     4.0570     3.8660 h1         1 A4C       0.032117
     62 HD73        15.1570     4.2900     3.3190 h1         1 A4C       0.032117
     63 H3           8.5980     3.4380    -0.5260 ha         1 A4C       0.121000
     64 H2           6.1680     3.7190    -0.7690 ha         1 A4C       0.117000
     65 H1           4.7120     1.7860    -1.1520 ha         1 A4C       0.109000
     66 H5           9.1880    -3.5380    -1.0660 ha         1 A4C       0.136000
     67 H6           7.8550    -5.5970    -1.4650 ha         1 A4C       0.116500
     68 H7           5.3960    -5.4280    -1.8370 ha         1 A4C       0.113500
     69 H8           4.2840    -3.2290    -1.8010 ha         1 A4C       0.107000
     70 HN9          3.8920     0.1650    -2.0240 hn         1 A4C       0.466500
     71 HX11         3.2900    -2.0290    -0.1000 h1         1 A4C       0.046700
     72 HX12         3.3270    -0.3380     0.4350 h1         1 A4C       0.046700
     73 HX21         1.5930     0.2390    -1.2810 hc         1 A4C       0.049950
     74 HX22         1.5700    -1.4400    -1.8280 hc         1 A4C       0.049950
     75 HX31         0.7860    -2.1700     0.4440 hc         1 A4C       0.041700
     76 HX32         0.8100    -0.4930     0.9920 hc         1 A4C       0.041700
     77 HND3        -9.3910     3.3500    -0.1760 hn         1 A4C       0.311500
     78 HD51       -12.0990     3.0700     0.8460 h1         1 A4C       0.060700
     79 HD52       -11.5330     4.2150    -0.3860 h1         1 A4C       0.060700
     80 HD61       -11.5270     2.3430    -2.0730 h1         1 A4C       0.031200
     81 HD62       -12.2370     1.2660    -0.8700 h1         1 A4C       0.031200
     82 HD01       -14.1540     0.9890    -2.6300 h1         1 A4C       0.032117
     83 HD02       -14.9920     2.4690    -3.1550 h1         1 A4C       0.032117
     84 HD03       -13.3120     2.1810    -3.6490 h1         1 A4C       0.032117
     85 HD91       -15.5280     3.0690    -0.8720 h1         1 A4C       0.032117
     86 HD92       -14.6700     1.6930    -0.1400 h1         1 A4C       0.032117
     87 HD93       -14.2540     3.3620     0.3210 h1         1 A4C       0.032117
     88 H26         -7.9130     3.5560     1.2870 ha         1 A4C       0.121000
     89 H15         -5.4860     3.3300     1.6110 ha         1 A4C       0.117000
     90 H17         -4.4100     1.1250     1.5410 ha         1 A4C       0.109000
     91 H19         -9.7400    -3.1430     0.2460 ha         1 A4C       0.136000
     92 H20         -8.7980    -5.4390     0.1150 ha         1 A4C       0.116500
     93 H21         -6.3490    -5.7920     0.4170 ha         1 A4C       0.113500
     94 H23         -4.8610    -3.8790     0.8430 ha         1 A4C       0.107000
     95 HN11        -4.0350    -2.2530     1.7190 hn         1 A4C       0.466500
     96 HX41        -3.4260    -0.0440    -0.1870 h1         1 A4C       0.046700
     97 HX42        -3.4630    -1.7340    -0.7250 h1         1 A4C       0.046700
     98 HX51        -1.7290    -2.3140     0.9910 hc         1 A4C       0.049950
     99 HX52        -1.7060    -0.6350     1.5400 hc         1 A4C       0.049950
    100 HX61        -0.9220     0.0960    -0.7320 hc         1 A4C       0.041700
    101 HX62        -0.9460    -1.5800    -1.2810 hc         1 A4C       0.041700
    102 CD4         -9.7550     1.6000     0.8190 c          1 A4C       0.631700
@<TRIPOS>BOND
     1     1     2 2   
     2     2     3 1   
     3     2     9 1   
     4     3     4 1   
     5     3    52 1   
     6     4     5 1   
     7     4    53 1   
     8     4    54 1   
     9     5     6 1   
    10     5    55 1   
    11     5    56 1   
    12     6     7 1   
    13     6     8 1   
    14     7    57 1   
    15     7    58 1   
    16     7    59 1   
    17     8    60 1   
    18     8    61 1   
    19     8    62 1   
    20     9    10 ar  
    21     9    12 ar  
    22    10    11 ar  
    23    10    63 1   
    24    11    14 ar  
    25    11    64 1   
    26    12    13 ar  
    27    12    15 ar  
    28    13    14 ar  
    29    13    22 ar  
    30    14    65 1   
    31    15    16 ar  
    32    16    17 ar  
    33    16    20 ar  
    34    17    18 ar  
    35    17    66 1   
    36    18    19 ar  
    37    18    67 1   
    38    19    21 ar  
    39    19    68 1   
    40    20    21 ar  
    41    20    22 ar  
    42    21    69 1   
    43    22    23 1   
    44    23    24 1   
    45    23    70 1   
    46    24    25 1   
    47    24    71 1   
    48    24    72 1   
    49    25    26 1   
    50    25    73 1   
    51    25    74 1   
    52    26    51 1   
    53    26    75 1   
    54    26    76 1   
    55    27   102 2   
    56    28    29 1   
    57    28    77 1   
    58    28   102 1   
    59    29    30 1   
    60    29    78 1   
    61    29    79 1   
    62    30    31 1   
    63    30    80 1   
    64    30    81 1   
    65    31    32 1   
    66    31    33 1   
    67    32    82 1   
    68    32    83 1   
    69    32    84 1   
    70    33    85 1   
    71    33    86 1   
    72    33    87 1   
    73    34    35 ar  
    74    34    37 ar  
    75    34   102 1   
    76    35    36 ar  
    77    35    88 1   
    78    36    39 ar  
    79    36    89 1   
    80    37    38 ar  
    81    37    40 ar  
    82    38    39 ar  
    83    38    47 ar  
    84    39    90 1   
    85    40    41 ar  
    86    41    42 ar  
    87    41    45 ar  
    88    42    43 ar  
    89    42    91 1   
    90    43    44 ar  
    91    43    92 1   
    92    44    46 ar  
    93    44    93 1   
    94    45    46 ar  
    95    45    47 ar  
    96    46    94 1   
    97    47    48 1   
    98    48    49 1   
    99    48    95 1   
   100    49    50 1   
   101    49    96 1   
   102    49    97 1   
   103    50    51 1   
   104    50    98 1   
   105    50    99 1   
   106    51   100 1   
   107    51   101 1   
@<TRIPOS>SUBSTRUCTURE
     1 A4C         1 TEMP              0 ****  ****    0 ROOT
