@<TRIPOS>MOLECULE
A4C
  102   107     1     0     0
SMALL
bcc


@<TRIPOS>ATOM
      1 OD1         10.1590     1.2400    -2.1600 o          1 A4C      -0.580600
      2 CD1          9.7530     1.6990    -1.1030 c          1 A4C       0.698700
      3 ND1         10.5400     1.9490    -0.0480 ns         1 A4C      -0.574900
      4 CD2         11.9690     1.7180    -0.0430 c3         1 A4C       0.102500
      5 CD3         12.6230     2.5850     1.0250 c3         1 A4C       0.147800
      6 ND2         14.0520     2.3630     1.1090 n3         1 A4C      -0.710100
      7 CD8         14.7660     2.9210    -0.0210 c3         1 A4C       0.149100
      8 CD7         14.5860     2.8820     2.3520 c3         1 A4C       0.149100
      9 C4           8.3190     2.0870    -0.9110 ca         1 A4C      -0.205400
     10 C3           7.9730     3.4030    -0.8120 ca         1 A4C      -0.075000
     11 C2           6.6170     3.7870    -0.7120 ca         1 A4C      -0.156000
     12 C12          7.3180     1.0670    -0.8970 ca         1 A4C       0.475600
     13 C11          5.9480     1.4590    -0.8310 ca         1 A4C      -0.219300
     14 C1           5.6370     2.8410    -0.7210 ca         1 A4C      -0.083500
     15 N10          7.7270    -0.1980    -0.8990 nb         1 A4C      -0.686500
     16 C14          6.8000    -1.1560    -0.9200 ca         1 A4C       0.457600
     17 C5           7.2460    -2.5070    -0.9660 ca         1 A4C      -0.179800
     18 C6           6.3620    -3.5350    -1.0890 ca         1 A4C      -0.107500
     19 C7           4.9740    -3.2740    -1.1970 ca         1 A4C      -0.143000
     20 C13          5.3960    -0.9000    -0.9320 ca         1 A4C      -0.212300
     21 C8           4.5090    -1.9950    -1.1210 ca         1 A4C      -0.103000
     22 C9           4.9580     0.4420    -0.8220 ca         1 A4C       0.245600
     23 N9           3.6360     0.7560    -0.7470 nu         1 A4C      -0.759600
     24 CX1          2.6920     0.1540     0.1890 c3         1 A4C       0.213300
     25 CX2          1.3570    -0.1730    -0.4590 c3         1 A4C      -0.088900
     26 CX3          0.3490    -0.7090     0.5490 c3         1 A4C      -0.074400
     27 OD2        -10.0270     1.2150     2.1510 o          1 A4C      -0.580600
     28 ND3         -9.7890     1.5220    -0.0750 ns         1 A4C      -0.574900
     29 CD5        -11.1760     1.8260    -0.3520 c3         1 A4C       0.102500
     30 CD6        -11.2840     2.5550    -1.6850 c3         1 A4C       0.147800
     31 ND4        -12.6500     2.9090    -2.0090 n3         1 A4C      -0.710100
     32 CD0        -12.6960     3.9300    -3.0340 c3         1 A4C       0.149100
     33 CD9        -13.4450     1.7630    -2.4000 c3         1 A4C       0.149100
     34 C25         -7.8610     0.9320     1.2010 ca         1 A4C      -0.205400
     35 C26         -6.9500     1.9420     1.3000 ca         1 A4C      -0.075000
     36 C15         -5.5740     1.6530     1.4610 ca         1 A4C      -0.156000
     37 C27         -7.4430    -0.4330     1.2230 ca         1 A4C       0.475600
     38 C16         -6.0470    -0.7180     1.2860 ca         1 A4C      -0.219300
     39 C17         -5.1400     0.3620     1.4570 ca         1 A4C      -0.083500
     40 N12         -8.3910    -1.3650     1.1920 nb         1 A4C      -0.686500
     41 C18         -8.0140    -2.6420     1.2450 ca         1 A4C       0.457600
     42 C19         -9.0360    -3.6340     1.2580 ca         1 A4C      -0.179800
     43 C20         -8.7290    -4.9600     1.2750 ca         1 A4C      -0.107500
     44 C21         -7.3770    -5.3810     1.2640 ca         1 A4C      -0.143000
     45 C22         -6.6520    -3.0660     1.2620 ca         1 A4C      -0.212300
     46 C23         -6.3730    -4.4590     1.2500 ca         1 A4C      -0.103000
     47 C24         -5.6380    -2.0730     1.2430 ca         1 A4C       0.245600
     48 N11         -4.3210    -2.4150     1.2230 nu         1 A4C      -0.759600
     49 CX4         -3.3480    -1.8780     0.2760 c3         1 A4C       0.213300
     50 CX5         -2.0150    -1.5510     0.9290 c3         1 A4C      -0.088900
     51 CX6         -1.0000    -1.0310    -0.0800 c3         1 A4C      -0.074400
     52 HND1        10.1050     2.2490     0.8100 hn         1 A4C       0.311500
     53 HD21        12.3560     1.9550    -1.0340 h1         1 A4C       0.060700
     54 HD22        12.1970     0.6660     0.1540 h1         1 A4C       0.060700
     55 HD31        12.1840     2.3260     1.9930 h1         1 A4C       0.031200
     56 HD32        12.3760     3.6440     0.8380 h1         1 A4C       0.031200
     57 HD81        14.4330     2.4750    -0.9590 h1         1 A4C       0.032117
     58 HD82        14.6470     4.0120    -0.1070 h1         1 A4C       0.032117
     59 HD83        15.8310     2.7090     0.0770 h1         1 A4C       0.032117
     60 HD71        14.4600     3.9700     2.4600 h1         1 A4C       0.032117
     61 HD72        14.0970     2.4030     3.2010 h1         1 A4C       0.032117
     62 HD73        15.6530     2.6670     2.4150 h1         1 A4C       0.032117
     63 H3           8.7400     4.1680    -0.8150 ha         1 A4C       0.139000
     64 H2           6.3620     4.8340    -0.6220 ha         1 A4C       0.135000
     65 H1           4.6110     3.1710    -0.6270 ha         1 A4C       0.127000
     66 H5           8.3130    -2.6850    -0.9210 ha         1 A4C       0.154000
     67 H6           6.7180    -4.5560    -1.1350 ha         1 A4C       0.134500
     68 H7           4.2840    -4.0920    -1.3570 ha         1 A4C       0.131500
     69 H8           3.4510    -1.8180    -1.2460 ha         1 A4C       0.125000
     70 HN9          3.4270     1.7280    -0.9120 hn         1 A4C       0.411300
     71 HX11         3.1360    -0.7360     0.6320 h1         1 A4C       0.046700
     72 HX12         2.5320     0.8560     1.0140 h1         1 A4C       0.046700
     73 HX21         0.9570     0.7290    -0.9340 hc         1 A4C       0.049950
     74 HX22         1.5020    -0.9030    -1.2620 hc         1 A4C       0.049950
     75 HX31         0.7500    -1.6080     1.0270 hc         1 A4C       0.041700
     76 HX32         0.2100     0.0260     1.3500 hc         1 A4C       0.041700
     77 HND3        -9.1530     1.4390    -0.8530 hn         1 A4C       0.311500
     78 HD51       -11.7700     0.9070    -0.3530 h1         1 A4C       0.060700
     79 HD52       -11.5720     2.4650     0.4370 h1         1 A4C       0.060700
     80 HD61       -10.6990     3.4760    -1.6140 h1         1 A4C       0.031200
     81 HD62       -10.8170     1.9490    -2.4820 h1         1 A4C       0.031200
     82 HD01       -12.2620     3.6050    -3.9930 h1         1 A4C       0.032117
     83 HD02       -13.7310     4.2210    -3.2220 h1         1 A4C       0.032117
     84 HD03       -12.1550     4.8190    -2.7070 h1         1 A4C       0.032117
     85 HD91       -14.4720     2.0780    -2.5940 h1         1 A4C       0.032117
     86 HD92       -13.0690     1.2690    -3.3100 h1         1 A4C       0.032117
     87 HD93       -13.4810     1.0170    -1.6070 h1         1 A4C       0.032117
     88 H26         -7.2770     2.9740     1.2850 ha         1 A4C       0.139000
     89 H15         -4.8720     2.4630     1.6030 ha         1 A4C       0.135000
     90 H17         -4.0900     0.1650     1.6240 ha         1 A4C       0.127000
     91 H19        -10.0650    -3.2970     1.2540 ha         1 A4C       0.154000
     92 H20         -9.5180    -5.7000     1.2860 ha         1 A4C       0.134500
     93 H21         -7.1440    -6.4370     1.2560 ha         1 A4C       0.131500
     94 H23         -5.3530    -4.8190     1.2250 ha         1 A4C       0.125000
     95 HN11        -4.1400    -3.3850     1.4270 hn         1 A4C       0.411300
     96 HX41        -3.7630    -0.9960    -0.2110 h1         1 A4C       0.046700
     97 HX42        -3.1940    -2.6160    -0.5180 h1         1 A4C       0.046700
     98 HX51        -1.6230    -2.4480     1.4180 hc         1 A4C       0.049950
     99 HX52        -2.1630    -0.8100     1.7210 hc         1 A4C       0.049950
    100 HX61        -1.3960    -0.1320    -0.5650 hc         1 A4C       0.041700
    101 HX62        -0.8630    -1.7700    -0.8760 hc         1 A4C       0.041700
    102 CD4         -9.3310     1.2230     1.1470 c          1 A4C       0.698700
@<TRIPOS>BOND
     1     1     2 2   
     2     2     3 1   
     3     2     9 1   
     4     3     4 1   
     5     3    52 1   
     6     4     5 1   
     7     4    53 1   
     8     4    54 1   
     9     5     6 1   
    10     5    55 1   
    11     5    56 1   
    12     6     7 1   
    13     6     8 1   
    14     7    57 1   
    15     7    58 1   
    16     7    59 1   
    17     8    60 1   
    18     8    61 1   
    19     8    62 1   
    20     9    10 ar  
    21     9    12 ar  
    22    10    11 ar  
    23    10    63 1   
    24    11    14 ar  
    25    11    64 1   
    26    12    13 ar  
    27    12    15 ar  
    28    13    14 ar  
    29    13    22 ar  
    30    14    65 1   
    31    15    16 ar  
    32    16    17 ar  
    33    16    20 ar  
    34    17    18 ar  
    35    17    66 1   
    36    18    19 ar  
    37    18    67 1   
    38    19    21 ar  
    39    19    68 1   
    40    20    21 ar  
    41    20    22 ar  
    42    21    69 1   
    43    22    23 1   
    44    23    24 1   
    45    23    70 1   
    46    24    25 1   
    47    24    71 1   
    48    24    72 1   
    49    25    26 1   
    50    25    73 1   
    51    25    74 1   
    52    26    51 1   
    53    26    75 1   
    54    26    76 1   
    55    27   102 2   
    56    28    29 1   
    57    28    77 1   
    58    28   102 1   
    59    29    30 1   
    60    29    78 1   
    61    29    79 1   
    62    30    31 1   
    63    30    80 1   
    64    30    81 1   
    65    31    32 1   
    66    31    33 1   
    67    32    82 1   
    68    32    83 1   
    69    32    84 1   
    70    33    85 1   
    71    33    86 1   
    72    33    87 1   
    73    34    35 ar  
    74    34    37 ar  
    75    34   102 1   
    76    35    36 ar  
    77    35    88 1   
    78    36    39 ar  
    79    36    89 1   
    80    37    38 ar  
    81    37    40 ar  
    82    38    39 ar  
    83    38    47 ar  
    84    39    90 1   
    85    40    41 ar  
    86    41    42 ar  
    87    41    45 ar  
    88    42    43 ar  
    89    42    91 1   
    90    43    44 ar  
    91    43    92 1   
    92    44    46 ar  
    93    44    93 1   
    94    45    46 ar  
    95    45    47 ar  
    96    46    94 1   
    97    47    48 1   
    98    48    49 1   
    99    48    95 1   
   100    49    50 1   
   101    49    96 1   
   102    49    97 1   
   103    50    51 1   
   104    50    98 1   
   105    50    99 1   
   106    51   100 1   
   107    51   101 1   
@<TRIPOS>SUBSTRUCTURE
     1 A4C         1 TEMP              0 ****  ****    0 ROOT
