@<TRIPOS>MOLECULE
A4D
   32    34     1     0     0
SMALL
No Charge or Current Charge


@<TRIPOS>ATOM
      1 N1          -4.6080    -0.3340     0.0090 nb         1 A4D      -0.304000
      2 C2          -3.8470    -1.3310     0.5200 ca         1 A4D       0.182900
      3 N3          -2.5070    -1.3090     0.7120 nb         1 A4D      -0.223000
      4 C4          -1.8780    -0.1720     0.3520 ca         1 A4D       0.120500
      5 C5          -2.5560     0.8980    -0.1740 ca         1 A4D      -0.099600
      6 C6          -3.9540     0.7850    -0.3350 ca         1 A4D       0.451900
      7 N6          -4.7150     1.7870    -0.8510 nv         1 A4D      -1.064900
      8 N7          -1.7150     1.9620    -0.4790 nc         1 A4D      -0.557100
      9 C8          -0.5120     1.4830    -0.1080 cd         1 A4D       0.413700
     10 N9          -0.5530     0.1720     0.4050 na         1 A4D      -0.313300
     11 OAB          2.8140    -2.1370    -1.6410 oh         1 A4D      -0.706000
     12 OAC          1.5550    -2.9470     0.6710 oh         1 A4D      -0.700000
     13 OAK          1.7490     0.2080     0.9620 os         1 A4D      -0.431000
     14 CAO          2.0040    -1.1660    -0.9530 c5         1 A4D       0.090300
     15 CAP          0.9520    -1.8480    -0.0350 c5         1 A4D       0.103300
     16 CAQ          2.7850    -0.3510     0.1220 c5         1 A4D       0.173300
     17 CAR          0.5690    -0.6340     0.8870 c5         1 A4D       0.322300
     18 H2          -4.3650    -2.2450     0.8050 h5         1 A4D       0.047100
     19 HN6         -5.6340     1.5470    -1.2140 hn         1 A4D       0.507000
     20 HN6A        -4.2240     2.5460    -1.3170 hn         1 A4D       0.507000
     21 H8           0.4240     2.0250    -0.1870 h5         1 A4D       0.077800
     22 HOAB         2.4580    -2.2280    -2.5590 ho         1 A4D       0.519000
     23 HOAC         2.2700    -3.2600     0.0620 ho         1 A4D       0.524000
     24 HSAD         5.2440     2.5950    -0.1200 hs         1 A4D       0.199800
     25 HAO          1.5170    -0.4860    -1.6670 h1         1 A4D       0.057700
     26 HAP          0.0830    -2.1950    -0.6130 h1         1 A4D       0.081700
     27 HAQ          3.4070    -1.0180     0.7350 h1         1 A4D       0.095700
     28 HAR          0.2830    -0.9880     1.8860 h2         1 A4D       0.127700
     29 CAG          3.6880     0.7710    -0.4390 c3         1 A4D       0.063600
     30 HAG          3.0660     1.4530    -1.0330 h1         1 A4D       0.068700
     31 SAD          4.6400     1.7900     0.7880 sh         1 A4D      -0.402800
     32 HAGA         4.4150     0.3130    -1.1230 h1         1 A4D       0.068700
@<TRIPOS>BOND
     1     1     2 ar  
     2     1     6 ar  
     3     2     3 ar  
     4     2    18 1   
     5     3     4 ar  
     6     4     5 ar  
     7     4    10 1   
     8     5     6 ar  
     9     5     8 1   
    10     6     7 1   
    11     7    19 1   
    12     7    20 1   
    13     8     9 2   
    14     9    10 1   
    15     9    21 1   
    16    10    17 1   
    17    11    14 1   
    18    11    22 1   
    19    12    15 1   
    20    12    23 1   
    21    13    16 1   
    22    13    17 1   
    23    14    15 1   
    24    14    16 1   
    25    14    25 1   
    26    15    17 1   
    27    15    26 1   
    28    16    27 1   
    29    16    29 1   
    30    17    28 1   
    31    24    31 1   
    32    29    30 1   
    33    29    31 1   
    34    29    32 1   
@<TRIPOS>SUBSTRUCTURE
     1 A4D         1 TEMP              0 ****  ****    0 ROOT
