@<TRIPOS>MOLECULE
A4D
   32    34     1     0     0
SMALL
bcc


@<TRIPOS>ATOM
      1 N1          -4.4050    -0.3170    -0.0100 nb         1 A4D      -0.830000
      2 C2          -3.6660    -1.2950     0.5060 ca         1 A4D       0.708900
      3 N3          -2.3590    -1.3200     0.7030 nb         1 A4D      -0.749000
      4 C4          -1.7830    -0.1840     0.3130 ca         1 A4D       0.448800
      5 C5          -2.4170     0.9190    -0.2360 ca         1 A4D      -0.230200
      6 C6          -3.8110     0.8180    -0.3980 ca         1 A4D       0.780200
      7 N6          -4.5520     1.8000    -0.9110 nv         1 A4D      -0.954500
      8 N7          -1.5130     1.9120    -0.5080 nc         1 A4D      -0.557100
      9 C8          -0.3680     1.4190    -0.1350 cd         1 A4D       0.413700
     10 N9          -0.4620     0.1490     0.3660 na         1 A4D      -0.284000
     11 OAB          2.8550    -2.1190    -1.5530 oh         1 A4D      -0.583800
     12 OAC          1.4640    -2.8940     0.7060 oh         1 A4D      -0.577800
     13 OAK          1.7650     0.0450     1.0250 os         1 A4D      -0.384600
     14 CAO          1.9880    -1.2060    -0.9460 c5         1 A4D       0.067100
     15 CAP          0.9190    -1.8550    -0.0590 c5         1 A4D       0.080100
     16 CAQ          2.7470    -0.3490     0.0670 c5         1 A4D       0.150100
     17 CAR          0.5970    -0.7060     0.8930 c5         1 A4D       0.269800
     18 H2          -4.2110    -2.1850     0.8020 h5         1 A4D       0.047100
     19 HN6         -5.5420     1.6770    -1.0360 hn         1 A4D       0.451800
     20 HN6A        -4.1300     2.6490    -1.2430 hn         1 A4D       0.451800
     21 H8           0.5720     1.9470    -0.1880 h5         1 A4D       0.077800
     22 HOAB         2.4570    -2.4290    -2.3730 ho         1 A4D       0.420000
     23 HOAC         2.0610    -3.3970     0.1390 ho         1 A4D       0.425000
     24 HSAD         4.9540     2.5900     0.0710 hs         1 A4D       0.199800
     25 HAO          1.4980    -0.5610    -1.6870 h1         1 A4D       0.057700
     26 HAP          0.0390    -2.1830    -0.6250 h1         1 A4D       0.081700
     27 HAQ          3.5100    -0.9560     0.5690 h1         1 A4D       0.095700
     28 HAR          0.2660    -1.0710     1.8690 h2         1 A4D       0.127700
     29 CAG          3.4030     0.8720    -0.5340 c3         1 A4D       0.015700
     30 HAG          2.7030     1.4300    -1.1570 h1         1 A4D       0.068700
     31 SAD          4.0430     1.9380     0.8000 sh         1 A4D      -0.354900
     32 HAGA         4.2330     0.5470    -1.1610 h1         1 A4D       0.068700
@<TRIPOS>BOND
     1     1     2 ar  
     2     1     6 ar  
     3     2     3 ar  
     4     2    18 1   
     5     3     4 ar  
     6     4     5 ar  
     7     4    10 1   
     8     5     6 ar  
     9     5     8 1   
    10     6     7 1   
    11     7    19 1   
    12     7    20 1   
    13     8     9 2   
    14     9    10 1   
    15     9    21 1   
    16    10    17 1   
    17    11    14 1   
    18    11    22 1   
    19    12    15 1   
    20    12    23 1   
    21    13    16 1   
    22    13    17 1   
    23    14    15 1   
    24    14    16 1   
    25    14    25 1   
    26    15    17 1   
    27    15    26 1   
    28    16    27 1   
    29    16    29 1   
    30    17    28 1   
    31    24    31 1   
    32    29    30 1   
    33    29    31 1   
    34    29    32 1   
@<TRIPOS>SUBSTRUCTURE
     1 A4D         1 TEMP              0 ****  ****    0 ROOT
