@<TRIPOS>MOLECULE
A4E
   82    86     1     0     0
SMALL
bcc


@<TRIPOS>ATOM
      1 C1           4.2130    -4.6730    -2.2700 c3         1 A4E      -0.133100
      2 C2           3.8300    -3.8520    -1.0580 c6         1 A4E       0.141500
      3 C3           2.9810    -2.6430    -1.4000 c6         1 A4E       0.154800
      4 N4           2.6880    -1.8680    -0.2130 n3         1 A4E      -0.758600
      5 C5           1.5180    -1.0410    -0.3060 c3         1 A4E       0.129800
      6 C6           1.6340     0.1720    -1.2140 c          1 A4E       0.665100
      7 C10         -0.4990     3.1310    -1.8010 c5         1 A4E      -0.106300
      8 C11         -0.0000     4.3640    -1.0400 c3         1 A4E      -0.080100
      9 C12         -1.3030     3.5650    -3.0230 c3         1 A4E      -0.080100
     10 C13         -1.3040     2.2540    -0.8800 ca         1 A4E       0.389600
     11 C15         -3.0860     1.7130     0.4360 ca         1 A4E       0.405600
     12 C16         -4.4370     2.1630     0.9150 c3         1 A4E       0.094100
     13 O17         -5.3840     1.8420    -0.0830 oh         1 A4E      -0.584800
     14 C19         -3.1870    -0.5390     1.6520 c3         1 A4E       0.023200
     15 C21         -5.3640    -1.3780     0.6750 ca         1 A4E      -0.089000
     16 C22         -6.0990    -2.2740    -0.0890 ca         1 A4E      -0.166500
     17 C23         -5.4410    -3.3310    -0.6860 ca         1 A4E       0.145900
     18 C25         -4.0820    -3.5250    -0.5320 ca         1 A4E      -0.166500
     19 C26         -3.3690    -2.6200     0.2400 ca         1 A4E      -0.089000
     20 C27         -1.2520     0.1700     0.2560 ca         1 A4E      -0.143000
     21 C28         -0.6250     1.0700    -0.5850 ca         1 A4E      -0.052700
     22 C35          2.0030     2.8370     2.2080 c6         1 A4E       0.128400
     23 C36          2.5080     1.4490     2.5900 c6         1 A4E       0.141500
     24 C37          1.3290     0.6790     3.1700 c3         1 A4E      -0.097100
     25 C38          4.7840    -2.4880     0.7950 c6         1 A4E       0.116800
     26 O7           2.6050     0.3440    -1.9310 o          1 A4E      -0.619100
     27 N8           0.5980     1.0580    -1.2540 n          1 A4E      -0.361000
     28 C9           0.6610     2.1920    -2.1910 c5         1 A4E       0.093000
     29 N14         -2.4730     2.5710    -0.3890 nb         1 A4E      -0.613000
     30 C18         -2.5110     0.4890     0.7740 ca         1 A4E      -0.141600
     31 C20         -3.9920    -1.5320     0.8470 ca         1 A4E      -0.100300
     32 C29          3.8920    -1.3210     0.3930 c6         1 A4E       0.188500
     33 C30          3.6250    -0.5070     1.6600 c3         1 A4E       0.166800
     34 N31          3.1030     0.8240     1.4070 n3         1 A4E      -0.721600
     35 C32          4.1420     1.6920     0.8720 c6         1 A4E       0.117800
     36 C33          3.5830     3.0550     0.5340 c6         1 A4E       0.129400
     37 O34          2.9980     3.6650     1.6600 os         1 A4E      -0.385600
     38 N39          5.0680    -3.3560    -0.3770 ny         1 A4E      -0.764000
     39 H42          4.7460    -4.0730    -3.0080 hc         1 A4E       0.077700
     40 H41          4.8390    -5.5220    -1.9940 hc         1 A4E       0.077700
     41 H40          3.3120    -5.0640    -2.7400 hc         1 A4E       0.077700
     42 H43          3.3160    -4.4670    -0.3190 hx         1 A4E       0.109700
     43 H45          3.4840    -2.0590    -2.1850 h1         1 A4E       0.084700
     44 H44          2.0460    -3.0110    -1.8260 h1         1 A4E       0.084700
     45 H46          0.7050    -1.6700    -0.6840 h1         1 A4E       0.090700
     46 H47          1.2210    -0.7190     0.6900 h1         1 A4E       0.090700
     47 H50          0.5990     4.0940    -0.1690 hc         1 A4E       0.048533
     48 H51          0.6150     4.9890    -1.6900 hc         1 A4E       0.048533
     49 H52         -0.8420     4.9620    -0.6910 hc         1 A4E       0.048533
     50 H53         -2.1440     4.1930    -2.7280 hc         1 A4E       0.048533
     51 H54         -0.6760     4.1400    -3.7070 hc         1 A4E       0.048533
     52 H55         -1.6970     2.7060    -3.5680 hc         1 A4E       0.048533
     53 H56         -4.6860     1.6950     1.8730 h1         1 A4E       0.035700
     54 H57         -4.3930     3.2440     1.0910 h1         1 A4E       0.035700
     55 H58         -6.2440     2.1540     0.2160 ho         1 A4E       0.410000
     56 H59         -2.4190    -1.0730     2.2160 hc         1 A4E       0.055200
     57 H60         -3.8270    -0.0600     2.3930 hc         1 A4E       0.055200
     58 H61         -5.8780    -0.5510     1.1450 ha         1 A4E       0.126500
     59 H62         -7.1670    -2.1480    -0.2170 ha         1 A4E       0.151500
     60 H63         -3.5900    -4.3690    -0.9980 ha         1 A4E       0.151500
     61 H64         -2.3060    -2.7780     0.3750 ha         1 A4E       0.126500
     62 H65         -0.8160    -0.7770     0.5330 ha         1 A4E       0.130000
     63 H74          1.1680     2.7190     1.4980 h1         1 A4E       0.060700
     64 H73          1.6150     3.3400     3.0950 h1         1 A4E       0.060700
     65 H75          3.2710     1.5650     3.3820 h1         1 A4E       0.044700
     66 H77          0.5320     0.5620     2.4340 hc         1 A4E       0.044367
     67 H78          1.5960    -0.3070     3.5430 hc         1 A4E       0.044367
     68 H76          0.9180     1.2340     4.0140 hc         1 A4E       0.044367
     69 H80          5.7430    -2.1410     1.1750 hx         1 A4E       0.101700
     70 H79          4.3050    -3.1130     1.5480 hx         1 A4E       0.101700
     71 H49          0.5460     1.8190    -3.2120 h1         1 A4E       0.068200
     72 H48          1.6290     2.6860    -2.1300 h1         1 A4E       0.068200
     73 H66          4.4590    -0.7100    -0.3250 h1         1 A4E       0.067700
     74 H67          2.9180    -1.0740     2.2670 h1         1 A4E       0.048700
     75 H68          4.5600    -0.4600     2.2440 h1         1 A4E       0.048700
     76 H70          4.9780     1.7970     1.5840 h1         1 A4E       0.043200
     77 H69          4.5540     1.2650    -0.0430 h1         1 A4E       0.043200
     78 H71          4.3800     3.7100     0.1790 h1         1 A4E       0.060700
     79 H72          2.8470     2.9500    -0.2740 h1         1 A4E       0.060700
     80 H82          5.6440    -4.1450    -0.0800 hn         1 A4E       0.443300
     81 H81          5.6420    -2.8390    -1.0480 hn         1 A4E       0.443300
     82 F24         -6.1450    -4.1990    -1.4320 f          1 A4E      -0.137900
@<TRIPOS>BOND
     1     1     2 1   
     2     1    39 1   
     3     1    40 1   
     4     1    41 1   
     5     2     3 1   
     6     2    38 1   
     7     2    42 1   
     8     3     4 1   
     9     3    43 1   
    10     3    44 1   
    11     4     5 1   
    12     4    32 1   
    13     5     6 1   
    14     5    45 1   
    15     5    46 1   
    16     6    26 2   
    17     6    27 1   
    18     7     8 1   
    19     7     9 1   
    20     7    10 1   
    21     7    28 1   
    22     8    47 1   
    23     8    48 1   
    24     8    49 1   
    25     9    50 1   
    26     9    51 1   
    27     9    52 1   
    28    10    21 ar  
    29    10    29 ar  
    30    11    12 1   
    31    11    29 ar  
    32    11    30 ar  
    33    12    13 1   
    34    12    53 1   
    35    12    54 1   
    36    13    55 1   
    37    14    30 1   
    38    14    31 1   
    39    14    56 1   
    40    14    57 1   
    41    15    16 ar  
    42    15    31 ar  
    43    15    58 1   
    44    16    17 ar  
    45    16    59 1   
    46    17    18 ar  
    47    17    82 1   
    48    18    19 ar  
    49    18    60 1   
    50    19    31 ar  
    51    19    61 1   
    52    20    21 ar  
    53    20    30 ar  
    54    20    62 1   
    55    21    27 1   
    56    22    23 1   
    57    22    37 1   
    58    22    63 1   
    59    22    64 1   
    60    23    24 1   
    61    23    34 1   
    62    23    65 1   
    63    24    66 1   
    64    24    67 1   
    65    24    68 1   
    66    25    32 1   
    67    25    38 1   
    68    25    69 1   
    69    25    70 1   
    70    27    28 1   
    71    28    71 1   
    72    28    72 1   
    73    32    33 1   
    74    32    73 1   
    75    33    34 1   
    76    33    74 1   
    77    33    75 1   
    78    34    35 1   
    79    35    36 1   
    80    35    76 1   
    81    35    77 1   
    82    36    37 1   
    83    36    78 1   
    84    36    79 1   
    85    38    80 1   
    86    38    81 1   
@<TRIPOS>SUBSTRUCTURE
     1 A4E         1 TEMP              0 ****  ****    0 ROOT
