@<TRIPOS>MOLECULE
A4E
   82    86     1     0     0
SMALL
No Charge or Current Charge


@<TRIPOS>ATOM
      1 C1           5.0460    -4.6090    -2.3430 c3         1 A4E      -0.133100
      2 C2           4.4290    -3.9460    -1.0910 c6         1 A4E       0.113300
      3 C3           3.3450    -2.8800    -1.4210 c6         1 A4E       0.154800
      4 N4           2.9020    -2.1110    -0.2070 n3         1 A4E      -0.758600
      5 C5           1.6840    -1.2540    -0.4760 c3         1 A4E       0.129800
      6 C6           1.7660    -0.0180    -1.4290 c          1 A4E       0.598100
      7 C10         -0.3990     3.0410    -1.9860 c5         1 A4E      -0.106300
      8 C11          0.0110     4.3680    -1.2920 c3         1 A4E      -0.080100
      9 C12         -1.2110     3.3880    -3.2630 c3         1 A4E      -0.080100
     10 C13         -1.1920     2.1440    -1.0380 ca         1 A4E       0.324300
     11 C15         -3.0030     1.5880     0.3050 ca         1 A4E       0.340300
     12 C16         -4.3670     2.0480     0.8600 c3         1 A4E       0.117300
     13 O17         -5.4600     1.7650    -0.0410 oh         1 A4E      -0.647000
     14 C19         -3.1030    -0.6790     1.5580 c3         1 A4E       0.023200
     15 C21         -5.5630    -1.3420     1.5230 ca         1 A4E      -0.071000
     16 C22         -6.6610    -1.9760     0.9150 ca         1 A4E      -0.148500
     17 C23         -6.4960    -2.6340    -0.3130 ca         1 A4E       0.181000
     18 C25         -5.2400    -2.6650    -0.9370 ca         1 A4E      -0.148500
     19 C26         -4.1410    -2.0320    -0.3300 ca         1 A4E      -0.071000
     20 C27         -1.1690    -0.0040     0.0700 ca         1 A4E      -0.125000
     21 C28         -0.5540     0.9410    -0.7760 ca         1 A4E      -0.080000
     22 C35          1.6450     2.7380     2.3860 c6         1 A4E       0.151600
     23 C36          2.2680     1.3430     2.7210 c6         1 A4E       0.141500
     24 C37          1.1470     0.4200     3.2820 c3         1 A4E      -0.097100
     25 C38          5.1740    -2.3770     0.8870 c6         1 A4E       0.088600
     26 O7           2.7340     0.1430    -2.1730 o          1 A4E      -0.619100
     27 N8           0.7080     0.9410    -1.4440 n          1 A4E      -0.201400
     28 C9           0.8580     2.1290    -2.3270 c5         1 A4E       0.093000
     29 N14         -2.3900     2.4800    -0.5160 nb         1 A4E      -0.613000
     30 C18         -2.4210     0.3290     0.6290 ca         1 A4E      -0.076300
     31 C20         -4.2970    -1.3630     0.9020 ca         1 A4E      -0.100300
     32 C29          4.0470    -1.3810     0.4730 c6         1 A4E       0.188500
     33 C30          3.6250    -0.5630     1.7520 c3         1 A4E       0.166800
     34 N31          2.9730     0.7690     1.5200 n3         1 A4E      -0.721600
     35 C32          3.9400     1.7670     0.9510 c6         1 A4E       0.117800
     36 C33          3.2840     3.1470     0.6830 c6         1 A4E       0.152600
     37 O34          2.6530     3.6420     1.8830 os         1 A4E      -0.432000
     38 N39          5.5850    -3.2520    -0.3370 ny         1 A4E      -0.818000
     39 H42          5.5020    -3.8680    -3.0110 hc         1 A4E       0.077700
     40 H41          5.8170    -5.3380    -2.0680 hc         1 A4E       0.077700
     41 H40          4.2800    -5.1440    -2.9160 hc         1 A4E       0.077700
     42 H43          4.0230    -4.7160    -0.4240 hx         1 A4E       0.109700
     43 H45          3.7500    -2.1990    -2.1830 h1         1 A4E       0.084700
     44 H44          2.4900    -3.3970    -1.8830 h1         1 A4E       0.084700
     45 H46          0.8810    -1.8830    -0.8800 h1         1 A4E       0.090700
     46 H47          1.3210    -0.8650     0.4800 h1         1 A4E       0.090700
     47 H50          0.5350     4.1780    -0.3490 hc         1 A4E       0.048533
     48 H51          0.6750     4.9640    -1.9300 hc         1 A4E       0.048533
     49 H52         -0.8650     4.9840    -1.0570 hc         1 A4E       0.048533
     50 H53         -2.1050     3.9780    -3.0230 hc         1 A4E       0.048533
     51 H54         -0.6100     3.9680    -3.9730 hc         1 A4E       0.048533
     52 H55         -1.5470     2.4790    -3.7760 hc         1 A4E       0.048533
     53 H56         -4.5510     1.5780     1.8330 h1         1 A4E       0.035700
     54 H57         -4.3160     3.1290     1.0490 h1         1 A4E       0.035700
     55 H58         -6.2770     2.1200     0.3740 ho         1 A4E       0.449000
     56 H59         -2.3870    -1.4480     1.8690 hc         1 A4E       0.055200
     57 H60         -3.3990    -0.1870     2.4920 hc         1 A4E       0.055200
     58 H61         -5.6990    -0.8340     2.4760 ha         1 A4E       0.108500
     59 H62         -7.6370    -1.9580     1.3930 ha         1 A4E       0.133500
     60 H63         -5.1200    -3.1790    -1.8870 ha         1 A4E       0.133500
     61 H64         -3.1690    -2.0610    -0.8180 ha         1 A4E       0.108500
     62 H65         -0.7430    -0.9720     0.2920 ha         1 A4E       0.112000
     63 H74          0.8510     2.6240     1.6340 h1         1 A4E       0.060700
     64 H73          1.1980     3.1760     3.2900 h1         1 A4E       0.060700
     65 H75          2.9960     1.4950     3.5320 h1         1 A4E       0.044700
     66 H77          0.4410     0.1270     2.4970 hc         1 A4E       0.044367
     67 H78          1.5500    -0.4900     3.7380 hc         1 A4E       0.044367
     68 H76          0.5750     0.9320     4.0650 hc         1 A4E       0.044367
     69 H80          6.0680    -1.8610     1.2550 hx         1 A4E       0.101700
     70 H79          4.8150    -3.0640     1.6620 hx         1 A4E       0.101700
     71 H49          0.8540     1.8170    -3.3800 h1         1 A4E       0.068200
     72 H48          1.8060     2.6510    -2.1460 h1         1 A4E       0.068200
     73 H66          4.5020    -0.6800    -0.2390 h1         1 A4E       0.067700
     74 H67          2.9710    -1.2290     2.3250 h1         1 A4E       0.048700
     75 H68          4.5210    -0.4080     2.3700 h1         1 A4E       0.048700
     76 H70          4.7840     1.9130     1.6420 h1         1 A4E       0.043200
     77 H69          4.3620     1.4090     0.0030 h1         1 A4E       0.043200
     78 H71          4.0430     3.8680     0.3500 h1         1 A4E       0.060700
     79 H72          2.5310     3.0510    -0.1090 h1         1 A4E       0.060700
     80 H82          6.2820    -3.9660    -0.0340 hn         1 A4E       0.498500
     81 H81          6.1090    -2.6540    -1.0090 hn         1 A4E       0.498500
     82 F24         -7.5520    -3.2430    -0.8960 f          1 A4E      -0.173000
@<TRIPOS>BOND
     1     1     2 1   
     2     1    39 1   
     3     1    40 1   
     4     1    41 1   
     5     2     3 1   
     6     2    38 1   
     7     2    42 1   
     8     3     4 1   
     9     3    43 1   
    10     3    44 1   
    11     4     5 1   
    12     4    32 1   
    13     5     6 1   
    14     5    45 1   
    15     5    46 1   
    16     6    26 2   
    17     6    27 1   
    18     7     8 1   
    19     7     9 1   
    20     7    10 1   
    21     7    28 1   
    22     8    47 1   
    23     8    48 1   
    24     8    49 1   
    25     9    50 1   
    26     9    51 1   
    27     9    52 1   
    28    10    21 ar  
    29    10    29 ar  
    30    11    12 1   
    31    11    29 ar  
    32    11    30 ar  
    33    12    13 1   
    34    12    53 1   
    35    12    54 1   
    36    13    55 1   
    37    14    30 1   
    38    14    31 1   
    39    14    56 1   
    40    14    57 1   
    41    15    16 ar  
    42    15    31 ar  
    43    15    58 1   
    44    16    17 ar  
    45    16    59 1   
    46    17    18 ar  
    47    17    82 1   
    48    18    19 ar  
    49    18    60 1   
    50    19    31 ar  
    51    19    61 1   
    52    20    21 ar  
    53    20    30 ar  
    54    20    62 1   
    55    21    27 1   
    56    22    23 1   
    57    22    37 1   
    58    22    63 1   
    59    22    64 1   
    60    23    24 1   
    61    23    34 1   
    62    23    65 1   
    63    24    66 1   
    64    24    67 1   
    65    24    68 1   
    66    25    32 1   
    67    25    38 1   
    68    25    69 1   
    69    25    70 1   
    70    27    28 1   
    71    28    71 1   
    72    28    72 1   
    73    32    33 1   
    74    32    73 1   
    75    33    34 1   
    76    33    74 1   
    77    33    75 1   
    78    34    35 1   
    79    35    36 1   
    80    35    76 1   
    81    35    77 1   
    82    36    37 1   
    83    36    78 1   
    84    36    79 1   
    85    38    80 1   
    86    38    81 1   
@<TRIPOS>SUBSTRUCTURE
     1 A4E         1 TEMP              0 ****  ****    0 ROOT
