@<TRIPOS>MOLECULE
A4F
   38    41     1     0     0
SMALL
No Charge or Current Charge


@<TRIPOS>ATOM
      1 O5          -1.9610    -1.4420     2.8830 o          1 A4F      -0.697500
      2 C17         -1.6440    -0.5460     2.1130 c          1 A4F       0.705600
      3 O4          -0.9500     0.4050     2.4410 o          1 A4F      -0.697500
      4 C18         -2.2020    -0.5920     0.7020 ca         1 A4F      -0.079600
      5 C19         -3.5670    -0.9070     0.5110 ca         1 A4F      -0.149000
      6 C20         -4.1200    -0.9660    -0.7760 ca         1 A4F       0.269000
      7 N1          -5.4440    -1.2660    -0.9470 nv         1 A4F      -1.081000
      8 C16         -3.3150    -0.7190    -1.8930 ca         1 A4F      -0.201000
      9 C15         -1.9550    -0.4130    -1.7260 ca         1 A4F      -0.081000
     10 C14         -1.3910    -0.3410    -0.4370 ca         1 A4F      -0.114000
     11 C1           0.0430    -0.0570    -0.3090 cc         1 A4F       0.239000
     12 C13          1.0300    -1.1050    -0.0330 ca         1 A4F      -0.140000
     13 C12          0.6430    -2.4520     0.1340 ca         1 A4F       0.018000
     14 C11          1.6100    -3.4370     0.3980 ca         1 A4F      -0.188000
     15 C10          2.9630    -3.0900     0.4930 ca         1 A4F       0.182100
     16 O3           3.8920    -4.0500     0.7470 oh         1 A4F      -0.534100
     17 C9           3.3580    -1.7580     0.3230 ca         1 A4F      -0.260000
     18 C8           2.3930    -0.7750     0.0600 ca         1 A4F       0.249000
     19 O2           2.7990     0.5190    -0.1130 os         1 A4F      -0.303000
     20 C2           0.4940     1.2510    -0.4860 cd         1 A4F      -0.196800
     21 C7           1.9050     1.5090    -0.3800 cd         1 A4F       0.259000
     22 C6           2.3860     2.7780    -0.5470 cc         1 A4F      -0.404200
     23 C3          -0.4420     2.3210    -0.7550 cd         1 A4F      -0.056200
     24 C4           0.0780     3.5900    -0.9180 cc         1 A4F      -0.333200
     25 C5           1.5080     3.9040    -0.8340 c          1 A4F       0.592500
     26 O1           1.9380     5.0370    -0.9900 o          1 A4F      -0.616100
     27 H2          -4.1970    -1.1030     1.3740 ha         1 A4F       0.136000
     28 H3          -6.0640    -1.3220    -0.1410 hn         1 A4F       0.437000
     29 H4          -5.8680    -1.1880    -1.8690 hn         1 A4F       0.437000
     30 H5          -3.7360    -0.7680    -2.8940 ha         1 A4F       0.094000
     31 H6          -1.3340    -0.2340    -2.6010 ha         1 A4F       0.099000
     32 H7          -0.4030    -2.7450     0.0610 ha         1 A4F       0.140000
     33 H8           1.3070    -4.4730     0.5270 ha         1 A4F       0.126000
     34 H9           4.7740    -3.6230     0.7770 ho         1 A4F       0.462000
     35 H10          4.4040    -1.4750     0.3890 ha         1 A4F       0.124000
     36 H11          3.4420     3.0020    -0.4750 ha         1 A4F       0.193000
     37 H12         -1.5160     2.1630    -0.8240 ha         1 A4F       0.189000
     38 H13         -0.5660     4.4380    -1.1230 ha         1 A4F       0.182000
@<TRIPOS>BOND
     1     1     2 1   
     2     2     3 1   
     3     2     4 1   
     4     4     5 ar  
     5     4    10 ar  
     6     5     6 ar  
     7     5    27 1   
     8     6     7 1   
     9     6     8 ar  
    10     7    28 1   
    11     7    29 1   
    12     8     9 ar  
    13     8    30 1   
    14     9    10 ar  
    15     9    31 1   
    16    10    11 1   
    17    11    12 1   
    18    11    20 2   
    19    12    13 ar  
    20    12    18 ar  
    21    13    14 ar  
    22    13    32 1   
    23    14    15 ar  
    24    14    33 1   
    25    15    16 1   
    26    15    17 ar  
    27    16    34 1   
    28    17    18 ar  
    29    17    35 1   
    30    18    19 1   
    31    19    21 1   
    32    20    21 1   
    33    20    23 1   
    34    21    22 2   
    35    22    25 1   
    36    22    36 1   
    37    23    24 2   
    38    23    37 1   
    39    24    25 1   
    40    24    38 1   
    41    25    26 2   
@<TRIPOS>SUBSTRUCTURE
     1 A4F         1 TEMP              0 ****  ****    0 ROOT
