@<TRIPOS>MOLECULE
A4F
   38    41     1     0     0
SMALL
bcc


@<TRIPOS>ATOM
      1 O5          -2.5650    -0.6460     3.0750 o          1 A4F      -0.802800
      2 C17         -1.7700    -0.4040     2.1500 c          1 A4F       0.916200
      3 O4          -0.5870    -0.0240     2.2540 o          1 A4F      -0.802800
      4 C18         -2.2720    -0.5830     0.7260 ca         1 A4F      -0.079600
      5 C19         -3.5920    -0.9340     0.4870 ca         1 A4F      -0.167000
      6 C20         -4.0890    -1.0910    -0.8100 ca         1 A4F       0.130600
      7 N1          -5.3880    -1.4920    -1.0260 nv         1 A4F      -0.832200
      8 C16         -3.2130    -0.8760    -1.8800 ca         1 A4F      -0.219000
      9 C15         -1.8970    -0.5210    -1.6460 ca         1 A4F      -0.099000
     10 C14         -1.4080    -0.3720    -0.3500 ca         1 A4F      -0.114000
     11 C1           0.0210    -0.0280    -0.1850 cc         1 A4F       0.239000
     12 C13          0.9820    -1.0720     0.0080 ca         1 A4F      -0.205300
     13 C12          0.6400    -2.4210     0.1940 ca         1 A4F       0.000000
     14 C11          1.5970    -3.3850     0.3780 ca         1 A4F      -0.206000
     15 C10          2.9560    -3.0270     0.3830 ca         1 A4F       0.182100
     16 O3           3.8460    -4.0070     0.5630 oh         1 A4F      -0.495100
     17 C9           3.3300    -1.7030     0.2010 ca         1 A4F      -0.343300
     18 C8           2.3420    -0.7470     0.0170 ca         1 A4F       0.424000
     19 O2           2.7560     0.5200    -0.1570 os         1 A4F      -0.391800
     20 C2           0.4800     1.2510    -0.4110 cd         1 A4F      -0.262100
     21 C7           1.8840     1.5270    -0.3760 cd         1 A4F       0.368700
     22 C6           2.3970     2.7740    -0.5580 cc         1 A4F      -0.354200
     23 C3          -0.3820     2.3710    -0.6360 cd         1 A4F      -0.006200
     24 C4           0.1040     3.6180    -0.8170 cc         1 A4F      -0.283200
     25 C5           1.5360     3.9040    -0.7920 c          1 A4F       0.592500
     26 O1           1.9700     5.0520    -0.9600 o          1 A4F      -0.616100
     27 H2          -4.2520    -1.0810     1.3340 ha         1 A4F       0.154000
     28 H3          -6.0360    -1.2970    -0.2800 hn         1 A4F       0.381800
     29 H4          -5.7770    -1.2630    -1.9270 hn         1 A4F       0.381800
     30 H5          -3.5640    -0.9880    -2.8990 ha         1 A4F       0.112000
     31 H6          -1.2380    -0.3620    -2.4910 ha         1 A4F       0.117000
     32 H7          -0.4040    -2.7040     0.1920 ha         1 A4F       0.158000
     33 H8           1.3180    -4.4210     0.5210 ha         1 A4F       0.144000
     34 H9           4.7470    -3.6660     0.5410 ho         1 A4F       0.423000
     35 H10          4.3740    -1.4090     0.1960 ha         1 A4F       0.142000
     36 H11          3.4690     2.9270    -0.5270 ha         1 A4F       0.143000
     37 H12         -1.4500     2.2000    -0.6530 ha         1 A4F       0.139000
     38 H13         -0.5730     4.4470    -0.9810 ha         1 A4F       0.132000
@<TRIPOS>BOND
     1     1     2 1   
     2     2     3 1   
     3     2     4 1   
     4     4     5 ar  
     5     4    10 ar  
     6     5     6 ar  
     7     5    27 1   
     8     6     7 1   
     9     6     8 ar  
    10     7    28 1   
    11     7    29 1   
    12     8     9 ar  
    13     8    30 1   
    14     9    10 ar  
    15     9    31 1   
    16    10    11 1   
    17    11    12 1   
    18    11    20 2   
    19    12    13 ar  
    20    12    18 ar  
    21    13    14 ar  
    22    13    32 1   
    23    14    15 ar  
    24    14    33 1   
    25    15    16 1   
    26    15    17 ar  
    27    16    34 1   
    28    17    18 ar  
    29    17    35 1   
    30    18    19 1   
    31    19    21 1   
    32    20    21 1   
    33    20    23 1   
    34    21    22 2   
    35    22    25 1   
    36    22    36 1   
    37    23    24 2   
    38    23    37 1   
    39    24    25 1   
    40    24    38 1   
    41    25    26 2   
@<TRIPOS>SUBSTRUCTURE
     1 A4F         1 TEMP              0 ****  ****    0 ROOT
