@<TRIPOS>MOLECULE
A4G
   36    38     1     0     0
SMALL
bcc


@<TRIPOS>ATOM
      1 N3          -3.3530     0.9720    -1.1480 nb         1 A4G      -0.744000
      2 C4          -2.9580    -0.0140    -0.3420 ca         1 A4G       0.461800
      3 N2          -1.0720     1.6310    -1.2130 nb         1 A4G      -0.814000
      4 C7          -2.3540     1.7230    -1.5590 ca         1 A4G       0.693900
      5 C6          -0.6880     0.6800    -0.3630 ca         1 A4G       0.742200
      6 C9           2.3140    -0.0630     1.6460 c6         1 A4G      -0.083400
      7 C13          3.0120    -0.5720    -1.3850 c3         1 A4G       0.142400
      8 C8           0.9660     0.6000     1.4260 c6         1 A4G       0.207800
      9 C2          -1.6670    -1.5020     0.8210 cc         1 A4G      -0.094400
     10 C3          -2.9730    -1.9010     0.8180 cd         1 A4G      -0.131100
     11 N1          -3.7480    -0.9980     0.1350 na         1 A4G      -0.265100
     12 C5          -1.6400    -0.2610     0.0910 ca         1 A4G      -0.348400
     13 N4           0.6300     0.6400     0.0060 nh         1 A4G      -0.767300
     14 C10          3.3890     0.6410     0.8250 c6         1 A4G      -0.067400
     15 C11          2.9830     0.7590    -0.6460 c6         1 A4G      -0.068700
     16 C12          1.6010     1.3990    -0.7650 c6         1 A4G       0.207800
     17 H1          -2.6000     2.5240    -2.2490 h5         1 A4G       0.045100
     18 H2           2.5610    -0.0220     2.7090 hc         1 A4G       0.048200
     19 H3           2.2510    -1.1210     1.3790 hc         1 A4G       0.048200
     20 H4           2.3030    -1.2720    -0.9270 h1         1 A4G       0.024700
     21 H5           2.6690    -0.4070    -2.4160 h1         1 A4G       0.024700
     22 H6           0.1800     0.0970     1.9820 h1         1 A4G       0.045200
     23 H7           1.0080     1.6310     1.8070 h1         1 A4G       0.045200
     24 H8          -0.2000    -1.9190     2.3620 hc         1 A4G       0.040367
     25 H9          -0.8570    -3.3310     1.5580 hc         1 A4G       0.040367
     26 H10          0.3190    -2.3160     0.7330 hc         1 A4G       0.040367
     27 H11         -3.4100    -2.7900     1.2420 h4         1 A4G       0.166000
     28 H12         -4.7330    -1.0930    -0.0480 hn         1 A4G       0.312700
     29 H13          3.5360     1.6490     1.2270 hc         1 A4G       0.048700
     30 H14          4.3470     0.1290     0.9220 hc         1 A4G       0.048700
     31 H15          3.6840     1.4330    -1.1520 hc         1 A4G       0.062700
     32 H16          1.2900     1.4270    -1.8080 h1         1 A4G       0.055200
     33 H17          1.6500     2.4410    -0.4180 h1         1 A4G       0.055200
     34 H18          4.3220    -1.9370    -1.8080 ho         1 A4G       0.402000
     35 C1          -0.5440    -2.3000     1.3990 c3         1 A4G      -0.020900
     36 O1           4.3270    -1.0860    -1.3610 oh         1 A4G      -0.605800
@<TRIPOS>BOND
     1     1     2 ar  
     2     1     4 ar  
     3     2    11 1   
     4     2    12 ar  
     5     3     4 ar  
     6     3     5 ar  
     7     4    17 1   
     8     5    12 ar  
     9     5    13 1   
    10     6     8 1   
    11     6    14 1   
    12     6    18 1   
    13     6    19 1   
    14     7    15 1   
    15     7    20 1   
    16     7    21 1   
    17     7    36 1   
    18     8    13 1   
    19     8    22 1   
    20     8    23 1   
    21     9    10 2   
    22     9    12 1   
    23     9    35 1   
    24    10    11 1   
    25    10    27 1   
    26    11    28 1   
    27    13    16 1   
    28    14    15 1   
    29    14    29 1   
    30    14    30 1   
    31    15    16 1   
    32    15    31 1   
    33    16    32 1   
    34    16    33 1   
    35    24    35 1   
    36    25    35 1   
    37    26    35 1   
    38    34    36 1   
@<TRIPOS>SUBSTRUCTURE
     1 A4G         1 TEMP              0 ****  ****    0 ROOT
