@<TRIPOS>MOLECULE
A4G
   36    38     1     0     0
SMALL
No Charge or Current Charge


@<TRIPOS>ATOM
      1 N3          -3.4780     1.1270    -0.9020 nb         1 A4G      -0.218000
      2 C4          -3.0790    -0.0170    -0.3170 ca         1 A4G       0.133500
      3 N2          -1.1900     1.9040    -0.8810 nb         1 A4G      -0.288000
      4 C7          -2.5070     2.0310    -1.1590 ca         1 A4G       0.167900
      5 C6          -0.7990     0.7540    -0.2890 ca         1 A4G       0.413900
      6 C9           2.3370     0.1940     1.7610 c6         1 A4G      -0.083400
      7 C13          3.0620    -0.8620    -1.1950 c3         1 A4G       0.165600
      8 C8           0.9490     0.8150     1.4660 c6         1 A4G       0.207800
      9 C2          -1.6510    -1.5620     0.5760 cc         1 A4G      -0.094400
     10 C3          -2.9430    -2.0640     0.6050 cd         1 A4G      -0.181100
     11 N1          -3.8330    -1.1130     0.0570 na         1 A4G      -0.315400
     12 C5          -1.7590    -0.2430    -0.0030 ca         1 A4G      -0.217800
     13 N4           0.5700     0.6460     0.0370 nh         1 A4G      -0.767300
     14 C10          3.4180     0.7640     0.8100 c6         1 A4G      -0.067400
     15 C11          2.9960     0.6070    -0.6800 c6         1 A4G      -0.068700
     16 C12          1.5850     1.2200    -0.8980 c6         1 A4G       0.207800
     17 H1          -2.8180     2.9600    -1.6340 h5         1 A4G       0.045100
     18 H2           2.6150     0.3950     2.8040 hc         1 A4G       0.048200
     19 H3           2.2850    -0.8980     1.6620 hc         1 A4G       0.048200
     20 H4           2.4130    -1.4940    -0.5770 h1         1 A4G       0.024700
     21 H5           2.6620    -0.8860    -2.2180 h1         1 A4G       0.024700
     22 H6           0.2000     0.3490     2.1220 h1         1 A4G       0.045200
     23 H7           0.9750     1.8860     1.7170 h1         1 A4G       0.045200
     24 H8          -0.0780    -1.9500     2.0000 hc         1 A4G       0.040367
     25 H9          -0.5960    -3.3700     1.0840 hc         1 A4G       0.040367
     26 H10          0.4060    -2.1450     0.3000 hc         1 A4G       0.040367
     27 H11         -3.2870    -3.0340     0.9600 h4         1 A4G       0.216000
     28 H12         -4.8380    -1.2100    -0.0560 hn         1 A4G       0.363000
     29 H13          3.5690     1.8300     1.0330 hc         1 A4G       0.048700
     30 H14          4.3830     0.2740     0.9960 hc         1 A4G       0.048700
     31 H15          3.7030     1.1730    -1.3020 hc         1 A4G       0.062700
     32 H16          1.2810     1.0500    -1.9420 h1         1 A4G       0.055200
     33 H17          1.6460     2.3090    -0.7550 h1         1 A4G       0.055200
     34 H18          4.3530    -2.2990    -1.5250 ho         1 A4G       0.441000
     35 C1          -0.4100    -2.2920     1.0140 c3         1 A4G      -0.020900
     36 O1           4.4010    -1.3760    -1.1920 oh         1 A4G      -0.668000
@<TRIPOS>BOND
     1     1     2 ar  
     2     1     4 ar  
     3     2    11 1   
     4     2    12 ar  
     5     3     4 ar  
     6     3     5 ar  
     7     4    17 1   
     8     5    12 ar  
     9     5    13 1   
    10     6     8 1   
    11     6    14 1   
    12     6    18 1   
    13     6    19 1   
    14     7    15 1   
    15     7    20 1   
    16     7    21 1   
    17     7    36 1   
    18     8    13 1   
    19     8    22 1   
    20     8    23 1   
    21     9    10 2   
    22     9    12 1   
    23     9    35 1   
    24    10    11 1   
    25    10    27 1   
    26    11    28 1   
    27    13    16 1   
    28    14    15 1   
    29    14    29 1   
    30    14    30 1   
    31    15    16 1   
    32    15    31 1   
    33    16    32 1   
    34    16    33 1   
    35    24    35 1   
    36    25    35 1   
    37    26    35 1   
    38    34    36 1   
@<TRIPOS>SUBSTRUCTURE
     1 A4G         1 TEMP              0 ****  ****    0 ROOT
