@<TRIPOS>MOLECULE
A4H
   42    43     1     0     0
SMALL
No Charge or Current Charge


@<TRIPOS>ATOM
      1 C1          -3.6930    -2.0480     0.3820 c          1 A4H       0.696200
      2 C2          -3.7310    -0.5540     0.5030 ce         1 A4H      -0.209200
      3 C3          -2.7650     0.3740     0.2070 cf         1 A4H      -0.136200
      4 C5          -0.2430     0.5970     0.0600 c2         1 A4H      -0.324200
      5 C6          -3.0490     1.8690     0.3010 cx         1 A4H      -0.050500
      6 C24         -2.5810     2.8780     1.3250 cx         1 A4H      -0.146400
      7 O11         -2.7100    -2.6030    -0.0800 o          1 A4H      -0.723000
      8 O12         -4.6900    -2.6560     0.7400 o          1 A4H      -0.723000
      9 C23         -2.2870     3.1010    -0.1390 cx         1 A4H      -0.146400
     10 C4          -1.4370     0.0980    -0.3680 cf         1 A4H      -0.054000
     11 C7           1.1430     0.2030    -0.5300 c6         1 A4H       0.270400
     12 O7           0.9460    -0.1310    -1.9030 oh         1 A4H      -0.651000
     13 C12          1.7300    -1.0670     0.2580 c6         1 A4H      -0.011000
     14 C14          0.8790    -2.3960     0.1270 c3         1 A4H      -0.089600
     15 C8           2.1350     1.3850    -0.5200 c2         1 A4H      -0.059400
     16 C9           3.4650     1.1850    -0.3900 ce         1 A4H      -0.318200
     17 C10          4.0780    -0.1490    -0.1960 c          1 A4H       0.585300
     18 O10          5.2720    -0.2710     0.0420 o          1 A4H      -0.560100
     19 C11          3.1580    -1.3640    -0.2760 c6         1 A4H      -0.177400
     20 H1          -4.6790    -0.1830     0.8840 ha         1 A4H       0.148000
     21 H2          -0.2660     1.2820     0.9210 ha         1 A4H       0.172000
     22 H3          -4.1080     1.9440     0.0660 hc         1 A4H       0.067700
     23 H4           1.0520     3.1340     0.1800 hc         1 A4H       0.044700
     24 H5           2.3380     3.5030    -0.9690 hc         1 A4H       0.044700
     25 H6           0.8360     2.7830    -1.5500 hc         1 A4H       0.044700
     26 H7           0.8150    -0.6700     2.2410 hc         1 A4H       0.045700
     27 H8           2.3170    -1.5890     2.3300 hc         1 A4H       0.045700
     28 H9           2.3610     0.1470     2.0150 hc         1 A4H       0.045700
     29 H10         -3.3370     3.5030     1.7940 hc         1 A4H       0.059950
     30 H11         -1.7550     2.6060     1.9760 hc         1 A4H       0.059950
     31 H13         -1.2650     2.9920    -0.4770 hc         1 A4H       0.059950
     32 H14         -2.8470     3.8780    -0.6540 hc         1 A4H       0.059950
     33 H15         -1.4310    -0.6490    -1.1650 ha         1 A4H       0.187000
     34 H16          0.5460     0.6650    -2.3060 ho         1 A4H       0.441000
     35 H17          0.7410    -2.6840    -0.9220 hc         1 A4H       0.045700
     36 H18          1.3640    -3.2370     0.6370 hc         1 A4H       0.045700
     37 H19         -0.1150    -2.2770     0.5720 hc         1 A4H       0.045700
     38 H20          4.1610     2.0210    -0.3870 ha         1 A4H       0.180000
     39 H21          3.6380    -2.2250     0.2090 hc         1 A4H       0.069700
     40 H22          3.0690    -1.6020    -1.3430 hc         1 A4H       0.069700
     41 C13          1.5570     2.7750    -0.7240 c3         1 A4H      -0.066900
     42 C15          1.8110    -0.7760     1.7960 c3         1 A4H      -0.089600
@<TRIPOS>BOND
     1     1     2 1   
     2     1     7 1   
     3     1     8 1   
     4     2     3 2   
     5     2    20 1   
     6     3     5 1   
     7     3    10 1   
     8     4    10 2   
     9     4    11 1   
    10     4    21 1   
    11     5     6 1   
    12     5     9 1   
    13     5    22 1   
    14     6     9 1   
    15     6    29 1   
    16     6    30 1   
    17     9    31 1   
    18     9    32 1   
    19    10    33 1   
    20    11    12 1   
    21    11    13 1   
    22    11    15 1   
    23    12    34 1   
    24    13    14 1   
    25    13    19 1   
    26    13    42 1   
    27    14    35 1   
    28    14    36 1   
    29    14    37 1   
    30    15    16 2   
    31    15    41 1   
    32    16    17 1   
    33    16    38 1   
    34    17    18 2   
    35    17    19 1   
    36    19    39 1   
    37    19    40 1   
    38    23    41 1   
    39    24    41 1   
    40    25    41 1   
    41    26    42 1   
    42    27    42 1   
    43    28    42 1   
@<TRIPOS>SUBSTRUCTURE
     1 A4H         1 TEMP              0 ****  ****    0 ROOT
