@<TRIPOS>MOLECULE
A4H
   42    43     1     0     0
SMALL
bcc


@<TRIPOS>ATOM
      1 C1          -3.4250    -1.8990     0.6270 c          1 A4H       0.906800
      2 C2          -3.5990    -0.4060     0.6850 ce         1 A4H      -0.159200
      3 C3          -2.7330     0.5280     0.2680 cf         1 A4H      -0.136200
      4 C5          -0.2460     0.4320     0.1930 c2         1 A4H      -0.274200
      5 C6          -3.1170     1.9610     0.3820 cx         1 A4H      -0.050500
      6 C24         -2.1950     3.0340     0.8980 cx         1 A4H      -0.146400
      7 O11         -2.5560    -2.3670    -0.1370 o          1 A4H      -0.828300
      8 O12         -4.1970    -2.5570     1.3590 o          1 A4H      -0.828300
      9 C23         -2.5690     3.0140    -0.5440 cx         1 A4H      -0.146400
     10 C4          -1.4320     0.2010    -0.3630 cf         1 A4H      -0.004000
     11 C7           1.0880     0.1210    -0.4440 c6         1 A4H       0.247200
     12 O7           0.9650    -0.1600    -1.8230 oh         1 A4H      -0.588800
     13 C12          1.7190    -1.1360     0.2220 c6         1 A4H      -0.011000
     14 C14          0.9650    -2.4010    -0.1830 c3         1 A4H      -0.089600
     15 C8           2.0070     1.3430    -0.3250 c2         1 A4H      -0.059400
     16 C9           3.3210     1.2340    -0.0890 ce         1 A4H      -0.268200
     17 C10          4.0020    -0.0500     0.0720 c          1 A4H       0.585300
     18 O10          5.1810    -0.1100     0.3730 o          1 A4H      -0.560100
     19 C11          3.1790    -1.2680    -0.2250 c6         1 A4H      -0.177400
     20 H1          -4.5270    -0.0590     1.1330 ha         1 A4H       0.098000
     21 H2          -0.1920     0.8370     1.1980 ha         1 A4H       0.122000
     22 H3          -4.1560     2.0990     0.6640 hc         1 A4H       0.067700
     23 H4           0.6680     2.9350     0.2080 hc         1 A4H       0.044700
     24 H5           2.1420     3.4680    -0.6070 hc         1 A4H       0.044700
     25 H6           0.8370     2.6980    -1.5110 hc         1 A4H       0.044700
     26 H7           0.6570    -1.1410     2.1280 hc         1 A4H       0.045700
     27 H8           2.2740    -1.8240     2.1930 hc         1 A4H       0.045700
     28 H9           2.0600    -0.0770     2.1310 hc         1 A4H       0.045700
     29 H10         -2.6350     3.7880     1.5390 hc         1 A4H       0.059950
     30 H11         -1.1840     2.7620     1.1680 hc         1 A4H       0.059950
     31 H13         -1.8080     2.7150    -1.2540 hc         1 A4H       0.059950
     32 H14         -3.2570     3.7620    -0.9140 hc         1 A4H       0.059950
     33 H15         -1.4810    -0.2380    -1.3530 ha         1 A4H       0.137000
     34 H16          0.4600     0.5430    -2.2440 ho         1 A4H       0.402000
     35 H17          1.0750    -2.6230    -1.2440 hc         1 A4H       0.045700
     36 H18          1.3670    -3.2540     0.3690 hc         1 A4H       0.045700
     37 H19         -0.1000    -2.3220     0.0380 hc         1 A4H       0.045700
     38 H20          3.9380     2.1250    -0.0320 ha         1 A4H       0.130000
     39 H21          3.6390    -2.1460     0.2360 hc         1 A4H       0.069700
     40 H22          3.2240    -1.4260    -1.3090 hc         1 A4H       0.069700
     41 C13          1.3900     2.6820    -0.5690 c3         1 A4H      -0.066900
     42 C15          1.6740    -1.0250     1.7520 c3         1 A4H      -0.089600
@<TRIPOS>BOND
     1     1     2 1   
     2     1     7 1   
     3     1     8 1   
     4     2     3 2   
     5     2    20 1   
     6     3     5 1   
     7     3    10 1   
     8     4    10 2   
     9     4    11 1   
    10     4    21 1   
    11     5     6 1   
    12     5     9 1   
    13     5    22 1   
    14     6     9 1   
    15     6    29 1   
    16     6    30 1   
    17     9    31 1   
    18     9    32 1   
    19    10    33 1   
    20    11    12 1   
    21    11    13 1   
    22    11    15 1   
    23    12    34 1   
    24    13    14 1   
    25    13    19 1   
    26    13    42 1   
    27    14    35 1   
    28    14    36 1   
    29    14    37 1   
    30    15    16 2   
    31    15    41 1   
    32    16    17 1   
    33    16    38 1   
    34    17    18 2   
    35    17    19 1   
    36    19    39 1   
    37    19    40 1   
    38    23    41 1   
    39    24    41 1   
    40    25    41 1   
    41    26    42 1   
    42    27    42 1   
    43    28    42 1   
@<TRIPOS>SUBSTRUCTURE
     1 A4H         1 TEMP              0 ****  ****    0 ROOT
