@<TRIPOS>MOLECULE
A4I
  160   163     1     0     0
SMALL
No Charge or Current Charge


@<TRIPOS>ATOM
      1 C10        130.4730   132.1100   106.9820 c          1 A4I       0.529100
      2 C17        132.5450   134.3890   107.5600 c6         1 A4I      -0.059700
      3 C20        133.6510   134.1340   104.8430 c6         1 A4I       0.185300
      4 C21        134.0850   133.1280   103.7460 c3         1 A4I      -0.070400
      5 C22        135.5260   133.2600   103.2100 c3         1 A4I       0.208500
      6 C24        135.8710   132.1000   102.2700 c2         1 A4I      -0.129400
      7 C26        137.0120   129.9040   101.8650 ce         1 A4I      -0.177000
      8 C28        138.0970   127.6950   101.5140 cf         1 A4I      -0.193000
      9 C01        131.7400   129.3330   107.6190 c          1 A4I       0.591100
     10 O02        133.1070   129.4340   107.4700 os         1 A4I      -0.436100
     11 O03        131.1890   129.0160   108.6660 o          1 A4I      -0.481000
     12 C04        130.9350   129.6490   106.3170 c6         1 A4I       0.045700
     13 C05        131.5990   128.8830   105.1320 c6         1 A4I      -0.074400
     14 C06        130.8400   129.0610   103.8130 c6         1 A4I      -0.072400
     15 C07        130.8370   130.5510   103.4640 c6         1 A4I      -0.097400
     16 C08        130.1870   131.3840   104.5870 c6         1 A4I       0.112000
     17 N09        130.6840   131.1130   105.9810 n          1 A4I      -0.367800
     18 O11        130.4450   131.8320   108.1770 o          1 A4I      -0.603100
     19 C12        130.2820   133.6150   106.5110 c          1 A4I       0.496100
     20 O13        129.1860   134.0460   106.1400 o          1 A4I      -0.479100
     21 C14        131.6390   134.3830   106.2780 c6         1 A4I       0.331000
     22 O15        132.3290   133.6880   105.2190 os         1 A4I      -0.511000
     23 O16        131.4070   135.7170   105.7990 oh         1 A4I      -0.650000
     24 C18        133.9640   134.9310   107.2340 c6         1 A4I      -0.079400
     25 C19        134.5860   134.1180   106.0810 c6         1 A4I      -0.104400
     26 O23        135.6450   134.5260   102.5320 os         1 A4I      -0.450000
     27 C25        136.7030   131.1030   102.6550 ce         1 A4I      -0.188000
     28 C27        137.8230   128.8980   102.2850 cf         1 A4I      -0.173000
     29 C29        138.9140   126.7020   101.9270 c2         1 A4I      -0.194200
     30 C30        139.1940   125.4270   101.1550 c3         1 A4I      -0.031500
     31 C31        139.1290   124.1650   102.0570 c3         1 A4I      -0.064400
     32 C32        137.8390   124.0140   102.9160 c3         1 A4I      -0.167700
     33 C33        137.9520   122.7410   103.7880 c          1 A4I       0.550100
     34 O34        137.7430   121.6310   103.3030 o          1 A4I      -0.477100
     35 C35        138.5110   122.9310   105.2300 c3         1 A4I       0.079300
     36 O36        139.1760   121.7360   105.7330 os         1 A4I      -0.420000
     37 C37        137.4100   123.3260   106.2620 c3         1 A4I       0.218500
     38 O38        136.2370   122.5150   106.1080 oh         1 A4I      -0.689000
     39 C39        137.0350   124.8100   106.2270 c2         1 A4I      -0.166400
     40 C40        135.9780   125.3040   105.5440 c2         1 A4I      -0.198200
     41 C41        135.5120   126.7560   105.4770 c3         1 A4I      -0.129500
     42 C42        134.5860   127.0920   106.6730 c          1 A4I       0.576100
     43 O43        133.5430   126.4790   106.8630 o          1 A4I      -0.503100
     44 C44        135.0900   128.1520   107.6610 c3         1 A4I      -0.199400
     45 C45        133.9830   128.8700   108.4700 c3         1 A4I       0.186300
     46 C46        134.5240   129.9950   109.4250 c3         1 A4I      -0.068700
     47 C47        133.3740   130.7280   110.1870 c3         1 A4I      -0.073400
     48 C48        133.7610   131.7980   111.2620 c6         1 A4I      -0.055700
     49 C49        134.6690   132.9230   110.6980 c6         1 A4I      -0.110400
     50 C50        135.0480   133.9810   111.7770 c6         1 A4I       0.166300
     51 O51        135.8020   135.0690   111.1850 os         1 A4I      -0.450000
     52 C52        133.7820   134.5540   112.4890 c6         1 A4I       0.182300
     53 O53        134.1790   135.4110   113.5810 os         1 A4I      -0.439100
     54 C54        132.8640   133.4180   113.0180 c6         1 A4I      -0.094400
     55 C55        132.4920   132.4160   111.9010 c6         1 A4I      -0.079400
     56 C56        131.9010   135.1730   108.7410 c3         1 A4I      -0.085100
     57 C57        135.1320   132.1140   100.9330 c3         1 A4I      -0.057900
     58 C58        140.5470   125.5270   100.4200 c3         1 A4I      -0.085100
     59 C59        136.5340   124.0170   102.0780 c3         1 A4I      -0.075100
     60 C60        137.9830   125.6470   107.0810 c3         1 A4I      -0.060900
     61 C61        134.8300   127.0740   104.1260 c3         1 A4I      -0.076100
     62 C62        135.5910   129.4360   110.4120 c3         1 A4I      -0.095100
     63 C63        136.9840   134.8950   102.1540 c3         1 A4I       0.143900
     64 C64        140.4280   121.4120   105.0990 c3         1 A4I       0.140900
     65 C65        137.0980   134.7670   110.6370 c3         1 A4I       0.148900
     66 C66        133.3010   136.3070   114.1350 c          1 A4I       0.622100
     67 O67        132.1800   136.5210   113.6860 o          1 A4I      -0.507000
     68 C68        133.9440   137.1130   115.2910 c3         1 A4I      -0.142000
     69 C69        132.9360   138.1520   115.8710 c3         1 A4I       0.174600
     70 C70        134.3610   136.1200   116.4090 c3         1 A4I       0.174600
     71 C71        135.2220   137.8420   114.7720 c3         1 A4I      -0.081100
     72 O72        132.5370   139.1100   114.8810 oh         1 A4I      -0.661000
     73 O73        133.2280   135.3800   116.8840 oh         1 A4I      -0.661000
     74 H1         132.6680   133.3570   107.9120 hc         1 A4I       0.066700
     75 H2         133.5980   135.1470   104.4170 h1         1 A4I       0.066700
     76 H3         133.3870   133.1980   102.9040 hc         1 A4I       0.058200
     77 H4         133.9750   132.1110   104.1420 hc         1 A4I       0.058200
     78 H5         136.2150   133.2310   104.0640 h1         1 A4I       0.033700
     79 H6         136.5420   129.8090   100.8850 ha         1 A4I       0.177000
     80 H7         137.5940   127.6010   100.5490 ha         1 A4I       0.174000
     81 H8         129.9520   129.1900   106.4940 h1         1 A4I       0.107700
     82 H9         131.6570   127.8120   105.3710 hc         1 A4I       0.065200
     83 H10        132.6330   129.2270   104.9930 hc         1 A4I       0.065200
     84 H11        129.8120   128.6820   103.9030 hc         1 A4I       0.049200
     85 H12        131.3280   128.4870   103.0130 hc         1 A4I       0.049200
     86 H13        130.3000   130.7180   102.5200 hc         1 A4I       0.058200
     87 H14        131.8660   130.8980   103.3010 hc         1 A4I       0.058200
     88 H15        130.3180   132.4390   104.3180 h1         1 A4I       0.054200
     89 H16        129.1040   131.1930   104.5770 h1         1 A4I       0.054200
     90 H17        130.9260   135.6070   104.9520 ho         1 A4I       0.465000
     91 H18        134.6140   134.8800   108.1180 hc         1 A4I       0.059700
     92 H19        133.9100   135.9930   106.9540 hc         1 A4I       0.059700
     93 H20        134.7630   133.0840   106.4070 hc         1 A4I       0.045700
     94 H21        135.5650   134.5430   105.8240 hc         1 A4I       0.045700
     95 H22        137.1710   131.1510   103.6400 ha         1 A4I       0.165000
     96 H23        138.2920   128.9790   103.2680 ha         1 A4I       0.166000
     97 H24        139.4240   126.7830   102.8890 ha         1 A4I       0.164000
     98 H25        138.4280   125.3100   100.3780 hc         1 A4I       0.057700
     99 H26        139.2420   123.2760   101.4240 hc         1 A4I       0.045700
    100 H27        139.9960   124.1730   102.7310 hc         1 A4I       0.045700
    101 H28        137.8240   124.8730   103.5930 hc         1 A4I       0.068700
    102 H29        139.2360   123.7540   105.1890 h1         1 A4I       0.044700
    103 H30        137.8370   123.1250   107.2560 h1         1 A4I       0.045700
    104 H31        135.6350   122.7570   106.8480 ho         1 A4I       0.508000
    105 H32        135.3410   124.6250   104.9720 ha         1 A4I       0.197000
    106 H33        136.3830   127.4170   105.5250 hc         1 A4I       0.068700
    107 H34        135.7710   127.6150   108.3280 hc         1 A4I       0.074200
    108 H35        135.7400   128.8650   107.1420 hc         1 A4I       0.074200
    109 H36        133.4640   128.1090   109.0720 h1         1 A4I       0.082700
    110 H37        135.0250   130.7370   108.7910 hc         1 A4I       0.049700
    111 H38        132.7330   131.2140   109.4430 hc         1 A4I       0.057200
    112 H39        132.7510   129.9660   110.6710 hc         1 A4I       0.057200
    113 H40        134.3020   131.2710   112.0600 hc         1 A4I       0.045700
    114 H41        135.5850   132.4800   110.2880 hc         1 A4I       0.049700
    115 H42        134.1620   133.4150   109.8610 hc         1 A4I       0.049700
    116 H43        135.6770   133.4960   112.5380 h1         1 A4I       0.043700
    117 H44        133.2260   135.1530   111.7550 h1         1 A4I       0.077700
    118 H45        131.9450   133.8410   113.4440 hc         1 A4I       0.059200
    119 H46        133.3710   132.8870   113.8360 hc         1 A4I       0.059200
    120 H47        131.8880   132.9210   111.1330 hc         1 A4I       0.055700
    121 H48        131.8580   131.6220   112.3210 hc         1 A4I       0.055700
    122 H49        132.5540   135.1700   109.6190 hc         1 A4I       0.046700
    123 H50        131.7170   136.2220   108.4770 hc         1 A4I       0.046700
    124 H51        130.9440   134.7320   109.0450 hc         1 A4I       0.046700
    125 H52        134.6350   133.0690   100.7260 hc         1 A4I       0.047700
    126 H53        135.8200   131.9290   100.1000 hc         1 A4I       0.047700
    127 H54        134.3600   131.3360   100.9090 hc         1 A4I       0.047700
    128 H55        140.7320   124.6260    99.8220 hc         1 A4I       0.037700
    129 H56        140.5540   126.3910    99.7440 hc         1 A4I       0.037700
    130 H57        141.3720   125.6430   101.1330 hc         1 A4I       0.037700
    131 H58        135.6640   123.8230   102.7160 hc         1 A4I       0.041033
    132 H59        136.3790   124.9880   101.5930 hc         1 A4I       0.041033
    133 H60        136.5650   123.2450   101.3000 hc         1 A4I       0.041033
    134 H61        139.0160   125.5640   106.7210 hc         1 A4I       0.042700
    135 H62        137.7370   126.7130   107.0910 hc         1 A4I       0.042700
    136 H63        137.9710   125.3120   108.1250 hc         1 A4I       0.042700
    137 H64        134.5790   128.1390   104.0610 hc         1 A4I       0.044700
    138 H65        135.5020   126.8370   103.2920 hc         1 A4I       0.044700
    139 H66        133.9080   126.4930   104.0010 hc         1 A4I       0.044700
    140 H67        135.9990   130.2200   111.0580 hc         1 A4I       0.036367
    141 H68        135.1610   128.6540   111.0500 hc         1 A4I       0.036367
    142 H69        136.4520   129.0160   109.8810 hc         1 A4I       0.036367
    143 H70        136.9850   135.8830   101.6770 h1         1 A4I       0.031700
    144 H71        137.6390   134.9390   103.0340 h1         1 A4I       0.031700
    145 H72        137.4060   134.1740   101.4420 h1         1 A4I       0.031700
    146 H73        140.8630   120.5140   105.5540 h1         1 A4I       0.032700
    147 H74        140.2930   121.2170   104.0270 h1         1 A4I       0.032700
    148 H75        141.1460   122.2340   105.2140 h1         1 A4I       0.032700
    149 H76        137.6080   135.6930   110.3410 h1         1 A4I       0.027033
    150 H77        137.7260   134.2540   111.3770 h1         1 A4I       0.027033
    151 H78        137.0150   134.1320   109.7460 h1         1 A4I       0.027033
    152 H79        133.4030   138.6680   116.7210 h1         1 A4I       0.041450
    153 H80        132.0500   137.6300   116.2590 h1         1 A4I       0.041450
    154 H81        135.1240   135.4310   116.0230 h1         1 A4I       0.041450
    155 H82        134.8190   136.6810   117.2360 h1         1 A4I       0.041450
    156 H83        135.6620   138.4690   115.5580 hc         1 A4I       0.049033
    157 H84        135.9890   137.1250   114.4510 hc         1 A4I       0.049033
    158 H85        134.9920   138.4860   113.9150 hc         1 A4I       0.049033
    159 H86        132.0670   138.5960   114.1840 ho         1 A4I       0.455500
    160 H87        133.5520   134.7820   117.5960 ho         1 A4I       0.455500
@<TRIPOS>BOND
     1     1    17 1   
     2     1    18 2   
     3     1    19 1   
     4     2    21 1   
     5     2    24 1   
     6     2    56 1   
     7     2    74 1   
     8     3     4 1   
     9     3    22 1   
    10     3    25 1   
    11     3    75 1   
    12     4     5 1   
    13     4    76 1   
    14     4    77 1   
    15     5     6 1   
    16     5    26 1   
    17     5    78 1   
    18     6    27 2   
    19     6    57 1   
    20     7    27 1   
    21     7    28 2   
    22     7    79 1   
    23     8    28 1   
    24     8    29 2   
    25     8    80 1   
    26     9    10 1   
    27     9    11 2   
    28     9    12 1   
    29    10    45 1   
    30    12    13 1   
    31    12    17 1   
    32    12    81 1   
    33    13    14 1   
    34    13    82 1   
    35    13    83 1   
    36    14    15 1   
    37    14    84 1   
    38    14    85 1   
    39    15    16 1   
    40    15    86 1   
    41    15    87 1   
    42    16    17 1   
    43    16    88 1   
    44    16    89 1   
    45    19    20 2   
    46    19    21 1   
    47    21    22 1   
    48    21    23 1   
    49    23    90 1   
    50    24    25 1   
    51    24    91 1   
    52    24    92 1   
    53    25    93 1   
    54    25    94 1   
    55    26    63 1   
    56    27    95 1   
    57    28    96 1   
    58    29    30 1   
    59    29    97 1   
    60    30    31 1   
    61    30    58 1   
    62    30    98 1   
    63    31    32 1   
    64    31    99 1   
    65    31   100 1   
    66    32    33 1   
    67    32    59 1   
    68    32   101 1   
    69    33    34 2   
    70    33    35 1   
    71    35    36 1   
    72    35    37 1   
    73    35   102 1   
    74    36    64 1   
    75    37    38 1   
    76    37    39 1   
    77    37   103 1   
    78    38   104 1   
    79    39    40 2   
    80    39    60 1   
    81    40    41 1   
    82    40   105 1   
    83    41    42 1   
    84    41    61 1   
    85    41   106 1   
    86    42    43 2   
    87    42    44 1   
    88    44    45 1   
    89    44   107 1   
    90    44   108 1   
    91    45    46 1   
    92    45   109 1   
    93    46    47 1   
    94    46    62 1   
    95    46   110 1   
    96    47    48 1   
    97    47   111 1   
    98    47   112 1   
    99    48    49 1   
   100    48    55 1   
   101    48   113 1   
   102    49    50 1   
   103    49   114 1   
   104    49   115 1   
   105    50    51 1   
   106    50    52 1   
   107    50   116 1   
   108    51    65 1   
   109    52    53 1   
   110    52    54 1   
   111    52   117 1   
   112    53    66 1   
   113    54    55 1   
   114    54   118 1   
   115    54   119 1   
   116    55   120 1   
   117    55   121 1   
   118    56   122 1   
   119    56   123 1   
   120    56   124 1   
   121    57   125 1   
   122    57   126 1   
   123    57   127 1   
   124    58   128 1   
   125    58   129 1   
   126    58   130 1   
   127    59   131 1   
   128    59   132 1   
   129    59   133 1   
   130    60   134 1   
   131    60   135 1   
   132    60   136 1   
   133    61   137 1   
   134    61   138 1   
   135    61   139 1   
   136    62   140 1   
   137    62   141 1   
   138    62   142 1   
   139    63   143 1   
   140    63   144 1   
   141    63   145 1   
   142    64   146 1   
   143    64   147 1   
   144    64   148 1   
   145    65   149 1   
   146    65   150 1   
   147    65   151 1   
   148    66    67 2   
   149    66    68 1   
   150    68    69 1   
   151    68    70 1   
   152    68    71 1   
   153    69    72 1   
   154    69   152 1   
   155    69   153 1   
   156    70    73 1   
   157    70   154 1   
   158    70   155 1   
   159    71   156 1   
   160    71   157 1   
   161    71   158 1   
   162    72   159 1   
   163    73   160 1   
@<TRIPOS>SUBSTRUCTURE
     1 A4I         1 TEMP              0 ****  ****    0 ROOT
