@<TRIPOS>MOLECULE
A4I
  160   163     1     0     0
SMALL
abcg2


@<TRIPOS>ATOM
      1 C10        130.1280   132.2570   107.0250 c          1 A4I       0.529100
      2 C17        132.2440   134.4980   107.7170 c6         1 A4I      -0.059700
      3 C20        133.6940   133.8950   105.2630 c6         1 A4I       0.185300
      4 C21        134.2260   132.8230   104.3240 c3         1 A4I      -0.070400
      5 C22        135.6660   133.0290   103.8680 c3         1 A4I       0.208500
      6 C24        136.0750   131.9320   102.9100 c2         1 A4I      -0.129400
      7 C26        137.5020   129.9310   102.5110 ce         1 A4I      -0.177000
      8 C28        138.9050   127.9230   102.2360 cf         1 A4I      -0.193000
      9 C01        130.9330   128.9720   107.2130 c          1 A4I       0.591100
     10 O02        132.0990   129.5470   106.9800 os         1 A4I      -0.436100
     11 O03        130.7780   127.8680   107.6680 o          1 A4I      -0.481000
     12 C04        129.7490   129.8910   106.9380 c6         1 A4I       0.045700
     13 C05        128.5940   129.1870   106.1960 c6         1 A4I      -0.074400
     14 C06        128.5570   129.5450   104.7090 c6         1 A4I      -0.072400
     15 C07        129.9590   129.8400   104.2090 c6         1 A4I      -0.097400
     16 C08        130.4930   131.1000   104.8770 c6         1 A4I       0.112000
     17 N09        130.1060   131.1390   106.2910 n          1 A4I      -0.367800
     18 O11        129.9490   132.3130   108.2350 o          1 A4I      -0.603100
     19 C12        130.2370   133.6180   106.3480 c          1 A4I       0.496100
     20 O13        129.2390   134.1110   105.8900 o          1 A4I      -0.479100
     21 C14        131.5860   134.3640   106.3370 c6         1 A4I       0.331000
     22 O15        132.3330   133.5230   105.5030 os         1 A4I      -0.511000
     23 O16        131.4230   135.6320   105.8160 oh         1 A4I      -0.650000
     24 C18        133.6940   134.9470   107.5280 c6         1 A4I      -0.079400
     25 C19        134.4390   134.0130   106.5810 c6         1 A4I      -0.104400
     26 O23        135.7510   134.3100   103.2820 os         1 A4I      -0.450000
     27 C25        137.0570   131.0860   103.2600 ce         1 A4I      -0.188000
     28 C27        138.5040   129.1320   102.9200 cf         1 A4I      -0.173000
     29 C29        139.8450   127.0890   102.6940 c2         1 A4I      -0.194200
     30 C30        140.2180   125.7830   102.0700 c3         1 A4I      -0.031500
     31 C31        139.8680   124.6280   103.0210 c3         1 A4I      -0.064400
     32 C32        138.3800   124.5800   103.4160 c3         1 A4I      -0.167700
     33 C33        138.2560   123.6770   104.6200 c          1 A4I       0.550100
     34 O34        138.0330   122.4940   104.5320 o          1 A4I      -0.477100
     35 C35        138.4950   124.3420   105.9810 c3         1 A4I       0.079300
     36 O36        138.9560   123.4290   106.9330 os         1 A4I      -0.420000
     37 C37        137.2030   124.9740   106.5340 c3         1 A4I       0.218500
     38 O38        136.2400   123.9600   106.5970 oh         1 A4I      -0.689000
     39 C39        136.7570   126.2050   105.7640 c2         1 A4I      -0.166400
     40 C40        135.6440   126.1800   105.0270 c2         1 A4I      -0.198200
     41 C41        135.0200   127.3170   104.2590 c3         1 A4I      -0.129500
     42 C42        133.8600   127.7840   105.1270 c          1 A4I       0.576100
     43 O43        132.7430   127.3390   105.0010 o          1 A4I      -0.503100
     44 C44        134.2260   128.8000   106.1770 c3         1 A4I      -0.199400
     45 C45        133.3130   128.8910   107.3880 c3         1 A4I       0.186300
     46 C46        133.9920   129.6910   108.5140 c3         1 A4I      -0.068700
     47 C47        132.9960   130.2860   109.5090 c3         1 A4I      -0.073400
     48 C48        133.6220   131.1050   110.6430 c6         1 A4I      -0.055700
     49 C49        134.5680   132.1800   110.1130 c6         1 A4I      -0.110400
     50 C50        135.1380   133.0680   111.2130 c6         1 A4I       0.166300
     51 O51        135.9160   134.1240   110.6980 os         1 A4I      -0.450000
     52 C52        134.0140   133.6900   112.0230 c6         1 A4I       0.182300
     53 O53        134.6450   134.4380   113.0710 os         1 A4I      -0.439100
     54 C54        133.0920   132.6250   112.5940 c6         1 A4I      -0.094400
     55 C55        132.5220   131.7600   111.4760 c6         1 A4I      -0.079400
     56 C56        131.4810   135.4100   108.6650 c3         1 A4I      -0.085100
     57 C57        135.3070   131.8390   101.6240 c3         1 A4I      -0.057900
     58 C58        141.7100   125.7410   101.7350 c3         1 A4I      -0.085100
     59 C59        137.4810   124.1490   102.2680 c3         1 A4I      -0.075100
     60 C60        137.6200   127.4120   105.9720 c3         1 A4I      -0.060900
     61 C61        134.5790   126.8710   102.8710 c3         1 A4I      -0.076100
     62 C62        134.9950   128.7800   109.2210 c3         1 A4I      -0.095100
     63 C63        137.0660   134.7060   102.9820 c3         1 A4I       0.143900
     64 C64        140.3180   123.1020   106.7880 c3         1 A4I       0.140900
     65 C65        137.1830   133.7400   110.2250 c3         1 A4I       0.148900
     66 C66        134.0660   135.5210   113.5540 c          1 A4I       0.622100
     67 O67        132.9680   135.8990   113.2160 o          1 A4I      -0.507000
     68 C68        134.9590   136.2470   114.5490 c3         1 A4I      -0.142000
     69 C69        134.1820   137.4010   115.2030 c3         1 A4I       0.174600
     70 C70        135.4200   135.2680   115.6280 c3         1 A4I       0.174600
     71 C71        136.1960   136.7860   113.8200 c3         1 A4I      -0.081100
     72 O72        133.8000   138.4170   114.3100 oh         1 A4I      -0.661000
     73 O73        134.2920   134.6320   116.1810 oh         1 A4I      -0.661000
     74 H1         132.2750   133.4960   108.1560 hc         1 A4I       0.066700
     75 H2         133.7130   134.8640   104.7520 h1         1 A4I       0.066700
     76 H3         133.5690   132.7750   103.4510 hc         1 A4I       0.058200
     77 H4         134.1680   131.8500   104.8200 hc         1 A4I       0.058200
     78 H5         136.3310   132.9830   104.7440 h1         1 A4I       0.033700
     79 H6         136.9820   129.6780   101.5920 ha         1 A4I       0.177000
     80 H7         138.3780   127.6760   101.3170 ha         1 A4I       0.174000
     81 H8         129.3950   130.1440   107.9410 h1         1 A4I       0.107700
     82 H9         127.6530   129.4620   106.6710 hc         1 A4I       0.065200
     83 H10        128.7000   128.1100   106.3250 hc         1 A4I       0.065200
     84 H11        127.9270   130.4240   104.5460 hc         1 A4I       0.049200
     85 H12        128.1040   128.7300   104.1440 hc         1 A4I       0.049200
     86 H13        129.9760   129.9980   103.1300 hc         1 A4I       0.058200
     87 H14        130.6180   128.9890   104.4010 hc         1 A4I       0.058200
     88 H15        131.5760   131.1570   104.7810 h1         1 A4I       0.054200
     89 H16        130.0680   131.9680   104.3720 h1         1 A4I       0.054200
     90 H17        130.8910   135.5980   105.0100 ho         1 A4I       0.465000
     91 H18        134.1910   134.9700   108.5010 hc         1 A4I       0.059700
     92 H19        133.7240   135.9720   107.1460 hc         1 A4I       0.059700
     93 H20        134.5410   133.0210   107.0360 hc         1 A4I       0.045700
     94 H21        135.4490   134.3880   106.4020 hc         1 A4I       0.045700
     95 H22        137.5600   131.2580   104.2090 ha         1 A4I       0.165000
     96 H23        139.0290   129.3730   103.8400 ha         1 A4I       0.166000
     97 H24        140.3620   127.3390   103.6210 ha         1 A4I       0.164000
     98 H25        139.6540   125.6620   101.1400 hc         1 A4I       0.057700
     99 H26        140.1500   123.6780   102.5560 hc         1 A4I       0.045700
    100 H27        140.4940   124.7280   103.9160 hc         1 A4I       0.045700
    101 H28        138.0960   125.5880   103.7280 hc         1 A4I       0.068700
    102 H29        139.2270   125.1520   105.8400 h1         1 A4I       0.044700
    103 H30        137.4700   125.3250   107.5440 h1         1 A4I       0.045700
    104 H31        135.4800   124.2920   107.0870 ho         1 A4I       0.508000
    105 H32        135.0860   125.2510   104.9650 ha         1 A4I       0.197000
    106 H33        135.7290   128.1430   104.1580 hc         1 A4I       0.068700
    107 H34        135.2430   128.5980   106.5120 hc         1 A4I       0.074200
    108 H35        134.2870   129.7740   105.6770 hc         1 A4I       0.074200
    109 H36        133.0730   127.8910   107.7550 h1         1 A4I       0.082700
    110 H37        134.5390   130.5150   108.0410 hc         1 A4I       0.049700
    111 H38        132.3010   130.9460   108.9840 hc         1 A4I       0.057200
    112 H39        132.3930   129.4840   109.9510 hc         1 A4I       0.057200
    113 H40        134.1890   130.4390   111.3040 hc         1 A4I       0.045700
    114 H41        135.3970   131.7240   109.5670 hc         1 A4I       0.049700
    115 H42        134.0310   132.8090   109.3940 hc         1 A4I       0.049700
    116 H43        135.7470   132.4460   111.8890 h1         1 A4I       0.043700
    117 H44        133.4430   134.3670   111.3790 h1         1 A4I       0.077700
    118 H45        132.2850   133.0970   113.1560 hc         1 A4I       0.059200
    119 H46        133.6500   132.0000   113.2980 hc         1 A4I       0.059200
    120 H47        131.8950   132.3730   110.8190 hc         1 A4I       0.055700
    121 H48        131.8680   130.9960   111.9040 hc         1 A4I       0.055700
    122 H49        131.9410   135.3780   109.6540 hc         1 A4I       0.046700
    123 H50        131.4930   136.4460   108.3290 hc         1 A4I       0.046700
    124 H51        130.4410   135.1040   108.7850 hc         1 A4I       0.046700
    125 H52        134.9710   132.8240   101.2980 hc         1 A4I       0.047700
    126 H53        135.8980   131.4110   100.8160 hc         1 A4I       0.047700
    127 H54        134.4130   131.2200   101.7350 hc         1 A4I       0.047700
    128 H55        141.9790   124.7870   101.2800 hc         1 A4I       0.037700
    129 H56        141.9800   126.5340   101.0380 hc         1 A4I       0.037700
    130 H57        142.3150   125.8630   102.6350 hc         1 A4I       0.037700
    131 H58        136.4380   124.0970   102.5820 hc         1 A4I       0.041033
    132 H59        137.5350   124.8650   101.4470 hc         1 A4I       0.041033
    133 H60        137.7670   123.1720   101.8760 hc         1 A4I       0.041033
    134 H61        138.6640   127.2170   105.7190 hc         1 A4I       0.042700
    135 H62        137.3060   128.2680   105.3790 hc         1 A4I       0.042700
    136 H63        137.6050   127.7130   107.0230 hc         1 A4I       0.042700
    137 H64        134.0640   127.6740   102.3430 hc         1 A4I       0.044700
    138 H65        135.4490   126.5870   102.2790 hc         1 A4I       0.044700
    139 H66        133.9130   126.0100   102.9160 hc         1 A4I       0.044700
    140 H67        135.6350   129.3410   109.9010 hc         1 A4I       0.036367
    141 H68        134.4760   128.0180   109.8050 hc         1 A4I       0.036367
    142 H69        135.6580   128.2640   108.5250 hc         1 A4I       0.036367
    143 H70        137.0320   135.7460   102.6580 h1         1 A4I       0.031700
    144 H71        137.7220   134.6370   103.8580 h1         1 A4I       0.031700
    145 H72        137.5140   134.1090   102.1810 h1         1 A4I       0.031700
    146 H73        140.5880   122.4460   107.6150 h1         1 A4I       0.032700
    147 H74        140.5310   122.5760   105.8520 h1         1 A4I       0.032700
    148 H75        140.9540   123.9930   106.8300 h1         1 A4I       0.032700
    149 H76        137.7370   134.6500   109.9950 h1         1 A4I       0.027033
    150 H77        137.7450   133.1760   110.9790 h1         1 A4I       0.027033
    151 H78        137.1360   133.1340   109.3150 h1         1 A4I       0.027033
    152 H79        134.8450   137.8630   115.9400 h1         1 A4I       0.041450
    153 H80        133.3200   137.0070   115.7520 h1         1 A4I       0.041450
    154 H81        136.1180   134.5460   115.1900 h1         1 A4I       0.041450
    155 H82        135.9820   135.8360   116.3830 h1         1 A4I       0.041450
    156 H83        136.8360   137.3120   114.5300 hc         1 A4I       0.049033
    157 H84        136.7830   135.9840   113.3730 hc         1 A4I       0.049033
    158 H85        135.9280   137.4890   113.0330 hc         1 A4I       0.049033
    159 H86        133.1320   138.0440   113.7270 ho         1 A4I       0.455500
    160 H87        134.5900   133.9760   116.8170 ho         1 A4I       0.455500
@<TRIPOS>BOND
     1     1    17 1   
     2     1    18 2   
     3     1    19 1   
     4     2    21 1   
     5     2    24 1   
     6     2    56 1   
     7     2    74 1   
     8     3     4 1   
     9     3    22 1   
    10     3    25 1   
    11     3    75 1   
    12     4     5 1   
    13     4    76 1   
    14     4    77 1   
    15     5     6 1   
    16     5    26 1   
    17     5    78 1   
    18     6    27 2   
    19     6    57 1   
    20     7    27 1   
    21     7    28 2   
    22     7    79 1   
    23     8    28 1   
    24     8    29 2   
    25     8    80 1   
    26     9    10 1   
    27     9    11 2   
    28     9    12 1   
    29    10    45 1   
    30    12    13 1   
    31    12    17 1   
    32    12    81 1   
    33    13    14 1   
    34    13    82 1   
    35    13    83 1   
    36    14    15 1   
    37    14    84 1   
    38    14    85 1   
    39    15    16 1   
    40    15    86 1   
    41    15    87 1   
    42    16    17 1   
    43    16    88 1   
    44    16    89 1   
    45    19    20 2   
    46    19    21 1   
    47    21    22 1   
    48    21    23 1   
    49    23    90 1   
    50    24    25 1   
    51    24    91 1   
    52    24    92 1   
    53    25    93 1   
    54    25    94 1   
    55    26    63 1   
    56    27    95 1   
    57    28    96 1   
    58    29    30 1   
    59    29    97 1   
    60    30    31 1   
    61    30    58 1   
    62    30    98 1   
    63    31    32 1   
    64    31    99 1   
    65    31   100 1   
    66    32    33 1   
    67    32    59 1   
    68    32   101 1   
    69    33    34 2   
    70    33    35 1   
    71    35    36 1   
    72    35    37 1   
    73    35   102 1   
    74    36    64 1   
    75    37    38 1   
    76    37    39 1   
    77    37   103 1   
    78    38   104 1   
    79    39    40 2   
    80    39    60 1   
    81    40    41 1   
    82    40   105 1   
    83    41    42 1   
    84    41    61 1   
    85    41   106 1   
    86    42    43 2   
    87    42    44 1   
    88    44    45 1   
    89    44   107 1   
    90    44   108 1   
    91    45    46 1   
    92    45   109 1   
    93    46    47 1   
    94    46    62 1   
    95    46   110 1   
    96    47    48 1   
    97    47   111 1   
    98    47   112 1   
    99    48    49 1   
   100    48    55 1   
   101    48   113 1   
   102    49    50 1   
   103    49   114 1   
   104    49   115 1   
   105    50    51 1   
   106    50    52 1   
   107    50   116 1   
   108    51    65 1   
   109    52    53 1   
   110    52    54 1   
   111    52   117 1   
   112    53    66 1   
   113    54    55 1   
   114    54   118 1   
   115    54   119 1   
   116    55   120 1   
   117    55   121 1   
   118    56   122 1   
   119    56   123 1   
   120    56   124 1   
   121    57   125 1   
   122    57   126 1   
   123    57   127 1   
   124    58   128 1   
   125    58   129 1   
   126    58   130 1   
   127    59   131 1   
   128    59   132 1   
   129    59   133 1   
   130    60   134 1   
   131    60   135 1   
   132    60   136 1   
   133    61   137 1   
   134    61   138 1   
   135    61   139 1   
   136    62   140 1   
   137    62   141 1   
   138    62   142 1   
   139    63   143 1   
   140    63   144 1   
   141    63   145 1   
   142    64   146 1   
   143    64   147 1   
   144    64   148 1   
   145    65   149 1   
   146    65   150 1   
   147    65   151 1   
   148    66    67 2   
   149    66    68 1   
   150    68    69 1   
   151    68    70 1   
   152    68    71 1   
   153    69    72 1   
   154    69   152 1   
   155    69   153 1   
   156    70    73 1   
   157    70   154 1   
   158    70   155 1   
   159    71   156 1   
   160    71   157 1   
   161    71   158 1   
   162    72   159 1   
   163    73   160 1   
@<TRIPOS>SUBSTRUCTURE
     1 A4I         1 TEMP              0 ****  ****    0 ROOT
