@<TRIPOS>MOLECULE
A4J
   45    47     1     0     0
SMALL
abcg2


@<TRIPOS>ATOM
      1 N3          -2.3640     0.5140     0.0870 nh         1 A4J      -0.781300
      2 C4           2.9460    -2.0430     0.1190 c5         1 A4J       0.232800
      3 N2          -0.3530    -0.5270    -0.0780 nb         1 A4J      -0.848000
      4 C7           1.7040     0.6910    -0.2710 ca         1 A4J      -0.191000
      5 C6           0.9740    -0.5300    -0.1710 ca         1 A4J       0.730900
      6 C9          -0.3890     1.8740     0.0190 ca         1 A4J      -0.260000
      7 C13         -4.6440     1.0030    -0.0650 c5         1 A4J       0.155800
      8 C8           0.9650     1.8860    -0.1390 ca         1 A4J      -0.036300
      9 C16          3.0720     0.7420    -0.6180 cg         1 A4J       0.342000
     10 C1           1.2020    -5.3900     0.3280 c3         1 A4J      -0.112100
     11 C2           1.7400    -4.0830    -0.2280 c5         1 A4J       0.160000
     12 C3           2.9010    -3.4960     0.5750 c5         1 A4J      -0.128400
     13 N1           1.5470    -1.7450    -0.1750 nh         1 A4J      -0.772300
     14 C5           0.7250    -2.9490    -0.1700 c5         1 A4J       0.237800
     15 C10         -1.0320     0.6070     0.0030 ca         1 A4J       0.706900
     16 C11         -3.0620    -0.7590     0.1570 c5         1 A4J       0.190800
     17 C12         -4.4700    -0.3540     0.5950 c5         1 A4J       0.155800
     18 C14         -3.2700     1.6480     0.1330 c5         1 A4J       0.190800
     19 O1          -5.7010     1.7140     0.5110 oh         1 A4J      -0.636500
     20 O2          -5.4750    -1.2400     0.1920 oh         1 A4J      -0.636500
     21 F1           0.8850     4.2380     0.0480 f          1 A4J      -0.107000
     22 F2           2.6680     3.2530     0.7260 f          1 A4J      -0.107000
     23 F3           2.2530     3.4050    -1.3830 f          1 A4J      -0.107000
     24 N4           4.1810     0.8190    -0.9350 n1         1 A4J      -0.467000
     25 H9           3.3320    -1.3860     0.8990 h1         1 A4J       0.065200
     26 H8           3.5780    -1.9300    -0.7620 h1         1 A4J       0.065200
     27 H12         -0.9570     2.7820     0.1460 ha         1 A4J       0.142000
     28 H2          -4.8060     0.8420    -1.1400 h1         1 A4J       0.057200
     29 H3           0.3380    -5.7300    -0.2450 hc         1 A4J       0.046367
     30 H5           1.9630    -6.1710     0.2860 hc         1 A4J       0.046367
     31 H4           0.8960    -5.2830     1.3690 hc         1 A4J       0.046367
     32 H7           3.8450    -4.0160     0.4000 hc         1 A4J       0.061200
     33 H6           2.6820    -3.5550     1.6430 hc         1 A4J       0.061200
     34 H11          0.0370    -2.9700    -1.0170 h1         1 A4J       0.067200
     35 H10          0.1230    -3.0120     0.7410 h1         1 A4J       0.067200
     36 H14         -3.0940    -1.2490    -0.8220 h1         1 A4J       0.063950
     37 H13         -2.5750    -1.4400     0.8550 h1         1 A4J       0.063950
     38 H1          -4.4760    -0.2090     1.6850 h1         1 A4J       0.057200
     39 H16         -3.2280     2.1580     1.1020 h1         1 A4J       0.063950
     40 H15         -3.0450     2.3790    -0.6460 h1         1 A4J       0.063950
     41 H17         -5.9040     2.4700    -0.0480 ho         1 A4J       0.451500
     42 H18         -5.4260    -2.0300     0.7390 ho         1 A4J       0.451500
     43 H19          2.8380    -4.8380    -1.6510 ho         1 A4J       0.443000
     44 C15          1.6910     3.2040    -0.1850 c3         1 A4J       0.352300
     45 O3           2.1030    -4.2180    -1.5930 oh         1 A4J      -0.648000
@<TRIPOS>BOND
     1     1    15 1   
     2     1    16 1   
     3     1    18 1   
     4     2    12 1   
     5     2    13 1   
     6     2    25 1   
     7     2    26 1   
     8     3     5 ar  
     9     3    15 ar  
    10     4     5 ar  
    11     4     8 ar  
    12     4     9 1   
    13     5    13 1   
    14     6     8 ar  
    15     6    15 ar  
    16     6    27 1   
    17     7    17 1   
    18     7    18 1   
    19     7    19 1   
    20     7    28 1   
    21     8    44 1   
    22     9    24 3   
    23    10    11 1   
    24    10    29 1   
    25    10    30 1   
    26    10    31 1   
    27    11    12 1   
    28    11    14 1   
    29    11    45 1   
    30    12    32 1   
    31    12    33 1   
    32    13    14 1   
    33    14    34 1   
    34    14    35 1   
    35    16    17 1   
    36    16    36 1   
    37    16    37 1   
    38    17    20 1   
    39    17    38 1   
    40    18    39 1   
    41    18    40 1   
    42    19    41 1   
    43    20    42 1   
    44    21    44 1   
    45    22    44 1   
    46    23    44 1   
    47    43    45 1   
@<TRIPOS>SUBSTRUCTURE
     1 A4J         1 TEMP              0 ****  ****    0 ROOT
