@<TRIPOS>MOLECULE
A4J
   45    47     1     0     0
SMALL
No Charge or Current Charge


@<TRIPOS>ATOM
      1 N3          -2.3590     0.5410     0.2260 nh         1 A4J      -0.781300
      2 C4           2.7710    -2.1030     0.6030 c5         1 A4J       0.232800
      3 N2          -0.3120    -0.4780    -0.0100 nb         1 A4J      -0.848000
      4 C7           1.7360     0.7660    -0.3620 ca         1 A4J      -0.191000
      5 C6           1.0110    -0.4360    -0.1900 ca         1 A4J       0.730900
      6 C9          -0.3540     1.9220    -0.1090 ca         1 A4J      -0.260000
      7 C13         -4.7010     0.9120     0.0190 c5         1 A4J       0.155800
      8 C8           1.0380     2.0010    -0.3150 ca         1 A4J      -0.036300
      9 C16          3.1460     0.7290    -0.6190 cg         1 A4J       0.342000
     10 C1           1.1920    -5.4780    -0.3150 c3         1 A4J      -0.112100
     11 C2           1.8770    -4.0980    -0.4320 c5         1 A4J       0.160000
     12 C3           2.4800    -3.5960     0.9090 c5         1 A4J      -0.128400
     13 N1           1.5820    -1.7220    -0.2000 nh         1 A4J      -0.772300
     14 C5           0.8740    -2.9270    -0.7320 c5         1 A4J       0.237800
     15 C10         -0.9750     0.6750     0.0290 ca         1 A4J       0.706900
     16 C11         -3.0410    -0.7500     0.5300 c5         1 A4J       0.190800
     17 C12         -4.4550    -0.2810     0.9990 c5         1 A4J       0.155800
     18 C14         -3.3340     1.6610     0.1240 c5         1 A4J       0.190800
     19 O1          -5.8280     1.7250     0.3930 oh         1 A4J      -0.636500
     20 O2          -5.4600    -1.3080     0.9010 oh         1 A4J      -0.636500
     21 F1           0.8860     4.4140    -0.3770 f          1 A4J      -0.107000
     22 F2           2.7000     3.5630     0.4440 f          1 A4J      -0.107000
     23 F3           2.3270     3.4840    -1.7000 f          1 A4J      -0.107000
     24 N4           4.2950     0.7180    -0.8260 n1         1 A4J      -0.467000
     25 H9           2.8660    -1.5140     1.5260 h1         1 A4J       0.065200
     26 H8           3.6990    -1.9910     0.0240 h1         1 A4J       0.065200
     27 H12         -0.9540     2.8230    -0.0570 ha         1 A4J       0.142000
     28 H2          -4.8360     0.5260    -1.0020 h1         1 A4J       0.057200
     29 H3           0.7350    -5.7760    -1.2670 hc         1 A4J       0.046367
     30 H5           1.9060    -6.2580    -0.0240 hc         1 A4J       0.046367
     31 H4           0.3970    -5.4610     0.4410 hc         1 A4J       0.046367
     32 H7           3.3810    -4.1410     1.2090 hc         1 A4J       0.061200
     33 H6           1.7580    -3.6880     1.7290 hc         1 A4J       0.061200
     34 H11          0.6620    -2.8440    -1.8070 h1         1 A4J       0.067200
     35 H10         -0.0770    -3.0940    -0.2080 h1         1 A4J       0.067200
     36 H14         -3.1040    -1.3860    -0.3650 h1         1 A4J       0.063950
     37 H13         -2.5320    -1.3140     1.3240 h1         1 A4J       0.063950
     38 H1          -4.3990     0.0950     2.0310 h1         1 A4J       0.057200
     39 H16         -3.2950     2.3030     1.0160 h1         1 A4J       0.063950
     40 H15         -3.1610     2.2840    -0.7650 h1         1 A4J       0.063950
     41 H17         -6.0250     2.3140    -0.3690 ho         1 A4J       0.451500
     42 H18         -5.3190    -1.9220     1.6550 ho         1 A4J       0.451500
     43 H19          3.4900    -4.9510    -1.1430 ho         1 A4J       0.443000
     44 C15          1.7380     3.3690    -0.4870 c3         1 A4J       0.352300
     45 O3           2.8930    -4.2300    -1.4360 oh         1 A4J      -0.648000
@<TRIPOS>BOND
     1     1    15 1   
     2     1    16 1   
     3     1    18 1   
     4     2    12 1   
     5     2    13 1   
     6     2    25 1   
     7     2    26 1   
     8     3     5 ar  
     9     3    15 ar  
    10     4     5 ar  
    11     4     8 ar  
    12     4     9 1   
    13     5    13 1   
    14     6     8 ar  
    15     6    15 ar  
    16     6    27 1   
    17     7    17 1   
    18     7    18 1   
    19     7    19 1   
    20     7    28 1   
    21     8    44 1   
    22     9    24 3   
    23    10    11 1   
    24    10    29 1   
    25    10    30 1   
    26    10    31 1   
    27    11    12 1   
    28    11    14 1   
    29    11    45 1   
    30    12    32 1   
    31    12    33 1   
    32    13    14 1   
    33    14    34 1   
    34    14    35 1   
    35    16    17 1   
    36    16    36 1   
    37    16    37 1   
    38    17    20 1   
    39    17    38 1   
    40    18    39 1   
    41    18    40 1   
    42    19    41 1   
    43    20    42 1   
    44    21    44 1   
    45    22    44 1   
    46    23    44 1   
    47    43    45 1   
@<TRIPOS>SUBSTRUCTURE
     1 A4J         1 TEMP              0 ****  ****    0 ROOT
