@<TRIPOS>MOLECULE
A4K
   36    36     1     0     0
SMALL
No Charge or Current Charge


@<TRIPOS>ATOM
      1 C1           2.9720     1.0720     2.0890 c          1 A4K       0.702200
      2 C2           3.1300     0.9260     0.5980 ce         1 A4K      -0.139200
      3 C4           0.8250     0.3280    -0.0440 ch         1 A4K      -0.022300
      4 C5          -0.3220     0.1060     0.2820 c1         1 A4K      -0.233100
      5 C6           2.5180     0.4880    -1.8560 c3         1 A4K       0.337200
      6 C8          -2.5810     1.0070     0.2150 c2         1 A4K      -0.027400
      7 C9          -3.3210     0.8810    -0.9150 ce         1 A4K      -0.335200
      8 C10         -3.4020    -0.3660    -1.7210 c          1 A4K       0.588300
      9 C11         -2.4940    -1.5220    -1.2900 c6         1 A4K      -0.181400
     10 C12         -2.2490    -1.5640     0.2510 c6         1 A4K      -0.015000
     11 C13         -2.5540     2.3040     1.0150 c3         1 A4K      -0.083900
     12 C14         -3.5990    -1.9150     0.9660 c3         1 A4K      -0.079100
     13 C15         -1.2700    -2.7430     0.5810 c3         1 A4K      -0.079100
     14 O11          1.8890     0.8890     2.6250 o          1 A4K      -0.702000
     15 O12          3.9740     1.3780     2.7180 o          1 A4K      -0.702000
     16 C3           2.1950     0.5970    -0.3590 cf         1 A4K      -0.142900
     17 F20          3.8300     0.6970    -2.1140 f          1 A4K      -0.127667
     18 F21          2.2080    -0.7390    -2.3380 f          1 A4K      -0.127667
     19 F22          1.8200     1.3980    -2.5740 f          1 A4K      -0.127667
     20 C7          -1.6990    -0.1540     0.7370 c6         1 A4K       0.331300
     21 O7          -1.5880    -0.1200     2.1570 oh         1 A4K      -0.667000
     22 O10         -4.1730    -0.4720    -2.6650 o          1 A4K      -0.560100
     23 H1           4.1490     1.1180     0.2750 ha         1 A4K       0.174000
     24 H2          -3.9400     1.7000    -1.2730 ha         1 A4K       0.189000
     25 H3          -2.8790    -2.4670    -1.6970 hc         1 A4K       0.072200
     26 H4          -1.5280    -1.3360    -1.7770 hc         1 A4K       0.072200
     27 H5          -1.5280     2.6580     1.1700 hc         1 A4K       0.062033
     28 H6          -3.1000     3.1050     0.5030 hc         1 A4K       0.062033
     29 H7          -3.0180     2.1730     2.0000 hc         1 A4K       0.062033
     30 H8          -4.0300    -2.8450     0.5740 hc         1 A4K       0.036700
     31 H9          -3.4630    -2.0540     2.0460 hc         1 A4K       0.036700
     32 H10         -4.3520    -1.1290     0.8350 hc         1 A4K       0.036700
     33 H11         -0.3160    -2.6490     0.0480 hc         1 A4K       0.036700
     34 H12         -1.0450    -2.7950     1.6530 hc         1 A4K       0.036700
     35 H13         -1.6990    -3.7100     0.2910 hc         1 A4K       0.036700
     36 H15         -0.6640     0.1760     2.3110 ho         1 A4K       0.478000
@<TRIPOS>BOND
     1     1     2 1   
     2     1    14 1   
     3     1    15 1   
     4     2    16 2   
     5     2    23 1   
     6     3     4 3   
     7     3    16 1   
     8     4    20 1   
     9     5    16 1   
    10     5    17 1   
    11     5    18 1   
    12     5    19 1   
    13     6     7 2   
    14     6    11 1   
    15     6    20 1   
    16     7     8 1   
    17     7    24 1   
    18     8     9 1   
    19     8    22 2   
    20     9    10 1   
    21     9    25 1   
    22     9    26 1   
    23    10    12 1   
    24    10    13 1   
    25    10    20 1   
    26    11    27 1   
    27    11    28 1   
    28    11    29 1   
    29    12    30 1   
    30    12    31 1   
    31    12    32 1   
    32    13    33 1   
    33    13    34 1   
    34    13    35 1   
    35    20    21 1   
    36    21    36 1   
@<TRIPOS>SUBSTRUCTURE
     1 A4K         1 TEMP              0 ****  ****    0 ROOT
