@<TRIPOS>MOLECULE
A4K
   36    36     1     0     0
SMALL
abcg2


@<TRIPOS>ATOM
      1 C1           2.5740     2.2240     1.5000 c          1 A4K       0.702200
      2 C2           2.9840     1.3370     0.3390 ce         1 A4K      -0.139200
      3 C4           0.8430     0.1750     0.1080 ch         1 A4K      -0.022300
      4 C5          -0.2960    -0.1290     0.3490 c1         1 A4K      -0.233100
      5 C6           2.6470    -0.3670    -1.4370 c3         1 A4K       0.337200
      6 C8          -2.4130     0.9360     0.5030 c2         1 A4K      -0.027400
      7 C9          -3.1310     1.0850    -0.6170 ce         1 A4K      -0.335200
      8 C10         -3.2660     0.0270    -1.6190 c          1 A4K       0.588300
      9 C11         -2.4690    -1.2260    -1.3820 c6         1 A4K      -0.181400
     10 C12         -2.3050    -1.5850     0.0970 c6         1 A4K      -0.015000
     11 C13         -2.2510     2.0380     1.4960 c3         1 A4K      -0.083900
     12 C14         -3.6710    -1.9170     0.7060 c3         1 A4K      -0.079100
     13 C15         -1.4010    -2.8110     0.2170 c3         1 A4K      -0.079100
     14 O11          1.5690     1.8980     2.1530 o          1 A4K      -0.702000
     15 O12          3.3120     3.2130     1.6690 o          1 A4K      -0.702000
     16 C3           2.1870     0.4480    -0.2620 cf         1 A4K      -0.142900
     17 F20          3.9250    -0.1580    -1.7540 f          1 A4K      -0.127667
     18 F21          2.5070    -1.6790    -1.1990 f          1 A4K      -0.127667
     19 F22          1.9190    -0.0980    -2.5290 f          1 A4K      -0.127667
     20 C7          -1.6680    -0.3650     0.8100 c6         1 A4K       0.331300
     21 O7          -1.6650    -0.6300     2.1920 oh         1 A4K      -0.667000
     22 O10         -3.9560     0.1790    -2.6110 o          1 A4K      -0.560100
     23 H1           3.9930     1.4700    -0.0340 ha         1 A4K       0.174000
     24 H2          -3.6370     2.0230    -0.8190 ha         1 A4K       0.189000
     25 H3          -2.9240    -2.0550    -1.9280 hc         1 A4K       0.072200
     26 H4          -1.4800    -1.0630    -1.8320 hc         1 A4K       0.072200
     27 H5          -1.1950     2.2150     1.7200 hc         1 A4K       0.062033
     28 H6          -2.6790     2.9670     1.1250 hc         1 A4K       0.062033
     29 H7          -2.7440     1.7910     2.4370 hc         1 A4K       0.062033
     30 H8          -4.1220    -2.7370     0.1440 hc         1 A4K       0.036700
     31 H9          -3.5800    -2.2420     1.7420 hc         1 A4K       0.036700
     32 H10         -4.3660    -1.0790     0.6770 hc         1 A4K       0.036700
     33 H11         -0.4240    -2.6450    -0.2390 hc         1 A4K       0.036700
     34 H12         -1.2460    -3.0910     1.2590 hc         1 A4K       0.036700
     35 H13         -1.8620    -3.6610    -0.2880 hc         1 A4K       0.036700
     36 H15         -1.0160    -0.0630     2.6240 ho         1 A4K       0.478000
@<TRIPOS>BOND
     1     1     2 1   
     2     1    14 1   
     3     1    15 1   
     4     2    16 2   
     5     2    23 1   
     6     3     4 3   
     7     3    16 1   
     8     4    20 1   
     9     5    16 1   
    10     5    17 1   
    11     5    18 1   
    12     5    19 1   
    13     6     7 2   
    14     6    11 1   
    15     6    20 1   
    16     7     8 1   
    17     7    24 1   
    18     8     9 1   
    19     8    22 2   
    20     9    10 1   
    21     9    25 1   
    22     9    26 1   
    23    10    12 1   
    24    10    13 1   
    25    10    20 1   
    26    11    27 1   
    27    11    28 1   
    28    11    29 1   
    29    12    30 1   
    30    12    31 1   
    31    12    32 1   
    32    13    33 1   
    33    13    34 1   
    34    13    35 1   
    35    20    21 1   
    36    21    36 1   
@<TRIPOS>SUBSTRUCTURE
     1 A4K         1 TEMP              0 ****  ****    0 ROOT
