@<TRIPOS>MOLECULE
A4L
  138   140     1     0     0
SMALL
bcc


@<TRIPOS>ATOM
      1 O27         -0.8500     3.5590     4.2280 o          1 A4L      -0.581100
      2 C26         -1.6300     3.5150     3.2900 c          1 A4L       0.670100
      3 C28         -3.0510     3.0430     3.4410 c3         1 A4L      -0.175100
      4 N25         -1.2650     3.8970     2.0480 ns         1 A4L      -0.566900
      5 C23          0.0940     4.2630     1.7520 c3         1 A4L       0.037700
      6 C24          0.9950     3.0340     1.8780 c          1 A4L       0.656100
      7 C22          0.2120     4.8510     0.3430 c3         1 A4L      -0.088400
      8 C21         -0.7310     6.0270     0.1130 c3         1 A4L      -0.077400
      9 C20         -0.6430     6.6060    -1.2960 c3         1 A4L      -0.104400
     10 C19         -1.8480     7.4760    -1.6440 c3         1 A4L       0.027300
     11 N18         -3.0640     6.6670    -1.5830 nu         1 A4L      -0.347100
     12 C10         -4.1020     6.8490    -0.7830 cc         1 A4L       0.498500
     13 C5          -4.5720     8.1520    -0.4160 ca         1 A4L      -0.273900
     14 C4          -4.1840     9.3300    -1.0960 ca         1 A4L      -0.046000
     15 C3          -4.6420    10.5610    -0.7230 ca         1 A4L      -0.149000
     16 C2          -5.5250    10.6580     0.3660 ca         1 A4L       0.118400
     17 CL15        -6.0630    12.2160     0.8590 cl         1 A4L      -0.034400
     18 C9          -4.7950     5.7100    -0.2280 ca         1 A4L      -0.216900
     19 C14         -4.4540     4.3880    -0.5560 ca         1 A4L      -0.135000
     20 C13         -5.0780     3.3120     0.0310 ca         1 A4L       0.130100
     21 O16         -4.6730     2.0910    -0.3590 os         1 A4L      -0.313900
     22 C17         -5.2080     0.9510     0.2890 c3         1 A4L       0.113700
     23 C12         -6.0720     3.5410     1.0030 ca         1 A4L      -0.109000
     24 C11         -6.3980     4.8220     1.3650 ca         1 A4L      -0.145000
     25 C8          -5.7670     5.9200     0.7630 ca         1 A4L       0.174600
     26 N7          -6.0730     7.1790     1.1690 na         1 A4L      -0.554000
     27 C6          -5.5430     8.2810     0.6030 ca         1 A4L       0.233600
     28 C1          -5.9880     9.5480     1.0180 ca         1 A4L      -0.199000
     29 N1          -6.0340     0.6090    -3.2870 n8         1 A4L      -0.883800
     30 C7          -5.2510    -0.3900    -4.0000 c3         1 A4L       0.137800
     31 C15         -4.5350    -1.4190    -3.1310 c3         1 A4L      -0.115400
     32 C18         -3.0030    -3.4420    -3.0550 c3         1 A4L      -0.061400
     33 C25         -1.7440    -4.0560    -3.6780 c3         1 A4L       0.069500
     34 N3          -0.1580    -2.7540    -2.5370 n7         1 A4L      -0.574000
     35 C27          0.2700    -1.3680    -2.4700 c3         1 A4L       0.120500
     36 O1           0.4940    -1.6250    -0.0860 o          1 A4L      -0.571100
     37 N4           2.0180    -0.3470    -1.1520 ns         1 A4L      -0.568900
     38 C30          2.7320     0.0520     0.0280 c3         1 A4L       0.016700
     39 O2           2.8840     2.2220    -1.0070 o          1 A4L      -0.504100
     40 C32          3.9860     2.0580     1.0780 c          1 A4L       0.461100
     41 O3           5.1400     2.3190     0.8610 o          1 A4L      -0.465100
     42 C33          3.2870     2.2920     2.4070 c3         1 A4L       0.022700
     43 N5           2.2750     3.3060     2.1860 ns         1 A4L      -0.565900
     44 O4           0.5820     1.9080     1.6710 o          1 A4L      -0.593100
     45 C34          4.2350     2.7030     3.5230 c3         1 A4L      -0.086400
     46 C35          3.5320     2.7930     4.8730 c3         1 A4L      -0.075400
     47 C36          4.4820     3.2270     5.9820 c3         1 A4L      -0.071400
     48 C37          3.8250     3.3200     7.3510 c3         1 A4L       0.149800
     49 N6           3.3300     2.0240     7.7950 n8         1 A4L      -0.886800
     50 C38          3.9410    -0.8460     0.3360 c3         1 A4L      -0.088400
     51 C39          5.0060    -0.8660    -0.7520 c3         1 A4L      -0.080400
     52 C40          6.1690    -1.7830    -0.3980 c3         1 A4L      -0.078400
     53 C41          7.2320    -1.8230    -1.4850 c3         1 A4L       0.151800
     54 N8           8.3290    -2.7050    -1.1130 n8         1 A4L      -0.884800
     55 C42         -0.9300    -0.4320    -2.6160 c3         1 A4L      -0.069400
     56 C43         -0.6030     1.0530    -2.5600 c3         1 A4L      -0.078400
     57 C44         -1.7610     1.8970    -3.0810 c3         1 A4L      -0.104400
     58 C45         -1.5880     3.3660    -2.7310 c3         1 A4L       0.136800
     59 N9          -2.6000     4.2750    -3.2690 n8         1 A4L      -0.942800
     60 C46         -2.0880    -4.6600    -5.0050 c          1 A4L       0.565900
     61 O5          -1.5220    -4.4320    -6.0460 o          1 A4L      -0.506100
     62 H281        -3.0550     1.9730     3.6530 hc         1 A4L       0.059700
     63 H282        -3.5140     3.5460     4.2880 hc         1 A4L       0.059700
     64 H283        -3.6680     3.2190     2.5610 hc         1 A4L       0.059700
     65 H1          -1.8890     3.7040     1.2810 hn         1 A4L       0.312500
     66 H23          0.4150     5.0240     2.4710 h1         1 A4L       0.082700
     67 H221         0.0200     4.0650    -0.3940 hc         1 A4L       0.063200
     68 H222         1.2460     5.1650     0.1840 hc         1 A4L       0.063200
     69 H211        -0.5270     6.8120     0.8470 hc         1 A4L       0.043200
     70 H212        -1.7570     5.7040     0.3070 hc         1 A4L       0.043200
     71 H201         0.2530     7.2230    -1.3970 hc         1 A4L       0.069700
     72 H202        -0.5460     5.8100    -2.0380 hc         1 A4L       0.069700
     73 H191        -1.7300     7.9110    -2.6380 h1         1 A4L       0.073200
     74 H192        -1.9180     8.2930    -0.9280 h1         1 A4L       0.073200
     75 H18         -2.9610     5.7620    -2.0780 hn         1 A4L       0.350700
     76 H4          -3.5430     9.2700    -1.9630 ha         1 A4L       0.152000
     77 H3          -4.3450    11.4450    -1.2680 ha         1 A4L       0.175000
     78 H14         -3.6940     4.1960    -1.2970 ha         1 A4L       0.171000
     79 H171        -6.2830     0.8520     0.1210 h1         1 A4L       0.057367
     80 H172        -5.0140     0.9680     1.3640 h1         1 A4L       0.057367
     81 H173        -4.7060     0.0900    -0.1420 h1         1 A4L       0.057367
     82 H12         -6.5840     2.7220     1.4900 ha         1 A4L       0.164000
     83 H11         -7.1500     4.9880     2.1240 ha         1 A4L       0.158000
     84 HN7         -6.7550     7.2930     1.9060 hn         1 A4L       0.476800
     85 H2          -6.7040     9.6300     1.8250 ha         1 A4L       0.171000
     86 HN11        -5.4280     1.1600    -2.6910 hn         1 A4L       0.329800
     87 HN12        -6.6880     0.1490    -2.6650 hn         1 A4L       0.329800
     88 H71         -4.5160     0.1360    -4.6170 h1         1 A4L       0.055700
     89 H72         -5.9130    -0.9090    -4.7000 h1         1 A4L       0.055700
     90 H151        -5.2740    -1.9680    -2.5360 hc         1 A4L       0.033200
     91 H152        -3.8890    -0.8970    -2.4150 hc         1 A4L       0.033200
     92 H161        -2.9260    -1.8350    -4.4900 hc         1 A4L       0.049700
     93 H162        -4.3090    -2.8900    -4.6860 hc         1 A4L       0.049700
     94 H182        -2.6990    -3.0020    -2.1030 hc         1 A4L       0.055700
     95 H25         -1.4590    -4.9200    -3.0480 h1         1 A4L       0.055700
     96 HN3          0.6130    -3.3720    -2.3020 hn         1 A4L       0.352800
     97 H27          0.9930    -1.1230    -3.2670 h1         1 A4L       0.031700
     98 HN4          2.3280     0.0070    -2.0430 hn         1 A4L       0.324500
     99 H30          2.0440    -0.0140     0.8770 h1         1 A4L       0.121700
    100 H33          2.7780     1.3650     2.6920 h1         1 A4L       0.101700
    101 HN5          2.5480     4.2650     2.3450 hn         1 A4L       0.323500
    102 H341         5.0430     1.9690     3.5810 hc         1 A4L       0.058700
    103 H342         4.7030     3.6600     3.2740 hc         1 A4L       0.058700
    104 H351         3.0950     1.8240     5.1260 hc         1 A4L       0.057200
    105 H352         2.7000     3.5010     4.8180 hc         1 A4L       0.057200
    106 H361         4.9070     4.2050     5.7350 hc         1 A4L       0.037200
    107 H362         5.3300     2.5340     6.0350 hc         1 A4L       0.037200
    108 H371         2.9760     4.0070     7.2940 h1         1 A4L       0.029700
    109 H372         4.5400     3.7740     8.0510 h1         1 A4L       0.029700
    110 HN61         2.8620     2.1300     8.6850 hn         1 A4L       0.338800
    111 HN62         4.1170     1.4120     7.9750 hn         1 A4L       0.338800
    112 H381         3.5570    -1.8550     0.5050 hc         1 A4L       0.060200
    113 H382         4.3850    -0.5390     1.2890 hc         1 A4L       0.060200
    114 H391         4.5620    -1.1960    -1.6960 hc         1 A4L       0.041700
    115 H392         5.3880     0.1460    -0.9280 hc         1 A4L       0.041700
    116 H401         6.6230    -1.4470     0.5410 hc         1 A4L       0.049700
    117 H402         5.8010    -2.7980    -0.2190 hc         1 A4L       0.049700
    118 H411         6.7850    -2.2080    -2.4060 h1         1 A4L       0.025700
    119 H412         7.5520    -0.7940    -1.7070 h1         1 A4L       0.025700
    120 HN81         8.8430    -2.2920    -0.3440 hn         1 A4L       0.339800
    121 HN82         8.9890    -2.7620    -1.8780 hn         1 A4L       0.339800
    122 H421        -1.6610    -0.6710    -1.8400 hc         1 A4L       0.065200
    123 H422        -1.3990    -0.6630    -3.5740 hc         1 A4L       0.065200
    124 H431         0.2870     1.2750    -3.1570 hc         1 A4L       0.047700
    125 H432        -0.3600     1.3480    -1.5330 hc         1 A4L       0.047700
    126 H441        -1.8470     1.7770    -4.1650 hc         1 A4L       0.047700
    127 H442        -2.7050     1.5380    -2.6510 hc         1 A4L       0.047700
    128 H451        -0.6080     3.7170    -3.0600 h1         1 A4L       0.049200
    129 H452        -1.5830     3.4510    -1.6380 h1         1 A4L       0.049200
    130 HN91        -3.4720     3.7830    -3.4330 hn         1 A4L       0.360300
    131 HN92        -2.3140     4.6230    -4.1750 hn         1 A4L       0.360300
    132 HC46        -2.9290    -5.3740    -4.9570 h4         1 A4L      -0.002800
    133 C31          3.1370     1.5040    -0.0750 c          1 A4L       0.485100
    134 C29          0.9330    -1.1430    -1.1170 c          1 A4L       0.658100
    135 N2          -0.6820    -3.0840    -3.7950 n7         1 A4L      -0.592000
    136 H181        -3.7060    -4.2430    -2.8130 hc         1 A4L       0.055700
    137 C16         -3.6840    -2.3950    -3.9350 c3         1 A4L      -0.073400
    138 HN2          0.0450    -3.4130    -4.4210 hn         1 A4L       0.360800
@<TRIPOS>BOND
     1     1     2 2   
     2     2     3 1   
     3     2     4 1   
     4     3    62 1   
     5     3    63 1   
     6     3    64 1   
     7     4     5 1   
     8     4    65 1   
     9     5     6 1   
    10     5     7 1   
    11     5    66 1   
    12     6    43 1   
    13     6    44 2   
    14     7     8 1   
    15     7    67 1   
    16     7    68 1   
    17     8     9 1   
    18     8    69 1   
    19     8    70 1   
    20     9    10 1   
    21     9    71 1   
    22     9    72 1   
    23    10    11 1   
    24    10    73 1   
    25    10    74 1   
    26    11    12 2   
    27    11    75 1   
    28    12    13 1   
    29    12    18 1   
    30    13    14 ar  
    31    13    27 ar  
    32    14    15 ar  
    33    14    76 1   
    34    15    16 ar  
    35    15    77 1   
    36    16    17 1   
    37    16    28 ar  
    38    18    19 ar  
    39    18    25 ar  
    40    19    20 ar  
    41    19    78 1   
    42    20    21 1   
    43    20    23 ar  
    44    21    22 1   
    45    22    79 1   
    46    22    80 1   
    47    22    81 1   
    48    23    24 ar  
    49    23    82 1   
    50    24    25 ar  
    51    24    83 1   
    52    25    26 1   
    53    26    27 1   
    54    26    84 1   
    55    27    28 ar  
    56    28    85 1   
    57    29    30 1   
    58    29    86 1   
    59    29    87 1   
    60    30    31 1   
    61    30    88 1   
    62    30    89 1   
    63    31    90 1   
    64    31    91 1   
    65    31   137 1   
    66    32    33 1   
    67    32    94 1   
    68    32   136 1   
    69    32   137 1   
    70    33    60 1   
    71    33    95 1   
    72    33   135 1   
    73    34    35 1   
    74    34    96 1   
    75    34   135 1   
    76    35    55 1   
    77    35    97 1   
    78    35   134 1   
    79    36   134 2   
    80    37    38 1   
    81    37    98 1   
    82    37   134 1   
    83    38    50 1   
    84    38    99 1   
    85    38   133 1   
    86    39   133 2   
    87    40    41 2   
    88    40    42 1   
    89    40   133 1   
    90    42    43 1   
    91    42    45 1   
    92    42   100 1   
    93    43   101 1   
    94    45    46 1   
    95    45   102 1   
    96    45   103 1   
    97    46    47 1   
    98    46   104 1   
    99    46   105 1   
   100    47    48 1   
   101    47   106 1   
   102    47   107 1   
   103    48    49 1   
   104    48   108 1   
   105    48   109 1   
   106    49   110 1   
   107    49   111 1   
   108    50    51 1   
   109    50   112 1   
   110    50   113 1   
   111    51    52 1   
   112    51   114 1   
   113    51   115 1   
   114    52    53 1   
   115    52   116 1   
   116    52   117 1   
   117    53    54 1   
   118    53   118 1   
   119    53   119 1   
   120    54   120 1   
   121    54   121 1   
   122    55    56 1   
   123    55   122 1   
   124    55   123 1   
   125    56    57 1   
   126    56   124 1   
   127    56   125 1   
   128    57    58 1   
   129    57   126 1   
   130    57   127 1   
   131    58    59 1   
   132    58   128 1   
   133    58   129 1   
   134    59   130 1   
   135    59   131 1   
   136    60    61 2   
   137    60   132 1   
   138    92   137 1   
   139    93   137 1   
   140   135   138 1   
@<TRIPOS>SUBSTRUCTURE
     1 A4L         1 TEMP              0 ****  ****    0 ROOT
