@<TRIPOS>MOLECULE
A4L
  138   140     1     0     0
SMALL
No Charge or Current Charge


@<TRIPOS>ATOM
      1 O27         -1.5650     5.9320     3.7310 o          1 A4L      -0.581100
      2 C26         -1.8240     4.7540     3.5330 c          1 A4L       0.603100
      3 C28         -3.0900     4.0960     4.0620 c3         1 A4L      -0.175100
      4 N25         -0.9930     3.9150     2.8260 ns         1 A4L      -0.499900
      5 C23          0.3250     4.2880     2.2590 c3         1 A4L       0.037700
      6 C24          1.3220     3.1010     2.4140 c          1 A4L       0.589100
      7 C22          0.2240     4.7480     0.7760 c3         1 A4L      -0.088400
      8 C21         -0.8180     5.8580     0.5000 c3         1 A4L      -0.077400
      9 C20         -0.7510     6.3940    -0.9500 c3         1 A4L      -0.104400
     10 C19         -1.9100     7.3370    -1.3330 c3         1 A4L       0.056600
     11 N18         -3.2040     6.6350    -1.3240 nu         1 A4L      -0.426700
     12 C10         -4.2850     6.9700    -0.5320 cc         1 A4L       0.498500
     13 C5          -4.8110     8.3330    -0.5190 ca         1 A4L      -0.273900
     14 C4          -4.4750     9.2830    -1.5130 ca         1 A4L      -0.028000
     15 C3          -5.0140    10.5790    -1.4620 ca         1 A4L      -0.131000
     16 C2          -5.8960    10.9300    -0.4330 ca         1 A4L       0.210000
     17 Cl15        -6.5740    12.5510    -0.3700 cl         1 A4L      -0.126000
     18 C9          -4.9060     5.9860     0.3510 ca         1 A4L      -0.216900
     19 C14         -4.6050     4.6020     0.2910 ca         1 A4L      -0.117000
     20 C13         -5.2390     3.6850     1.1430 ca         1 A4L       0.130100
     21 O16         -4.9000     2.3520     1.0170 os         1 A4L      -0.337100
     22 C17         -5.4910     1.3260     1.8360 c3         1 A4L       0.136900
     23 C12         -6.1730     4.1490     2.0910 ca         1 A4L      -0.091000
     24 C11         -6.4520     5.5240     2.1760 ca         1 A4L      -0.127000
     25 C8          -5.8240     6.4380     1.3140 ca         1 A4L       0.313000
     26 N7          -6.1070     7.7860     1.4580 na         1 A4L      -0.886000
     27 C6          -5.7170     8.6920     0.4900 ca         1 A4L       0.372000
     28 C1          -6.2500     9.9860     0.5380 ca         1 A4L      -0.181000
     29 N1          -6.7460    -1.0960    -4.2440 n8         1 A4L      -0.994200
     30 C7          -5.4820    -1.3840    -4.9500 c3         1 A4L       0.137800
     31 C15         -4.5960    -2.3400    -4.1290 c3         1 A4L      -0.115400
     32 C18         -2.3720    -3.6450    -4.0150 c3         1 A4L      -0.061400
     33 C25         -0.9690    -3.9340    -4.6300 c3         1 A4L       0.069500
     34 N3           0.3360    -2.4140    -3.1590 n7         1 A4L      -0.629200
     35 C27          0.4410    -0.9450    -2.8550 c3         1 A4L       0.120500
     36 O1           0.4980    -1.1430    -0.3970 o          1 A4L      -0.571100
     37 N4           2.1380     0.1060    -1.3650 ns         1 A4L      -0.501900
     38 C30          2.8830     0.4590    -0.1310 c3         1 A4L       0.016700
     39 O2           3.8070     2.2800    -1.4710 o          1 A4L      -0.504100
     40 C32          4.5280     2.3390     0.8750 c          1 A4L       0.461100
     41 O3           5.6890     2.7260     0.7520 o          1 A4L      -0.465100
     42 C33          3.7610     2.4300     2.2280 c3         1 A4L       0.022700
     43 N5           2.6360     3.3810     2.0890 ns         1 A4L      -0.498900
     44 O4           0.9800     1.9840     2.7800 o          1 A4L      -0.593100
     45 C34          4.6690     2.8190     3.4260 c3         1 A4L      -0.086400
     46 C35          3.9500     2.7870     4.7970 c3         1 A4L      -0.075400
     47 C36          4.8910     3.1270     5.9780 c3         1 A4L      -0.071400
     48 C37          4.1960     3.1510     7.3590 c3         1 A4L       0.149800
     49 N6           3.7090     1.8190     7.7670 n8         1 A4L      -0.997200
     50 C38          3.7340    -0.7410     0.3760 c3         1 A4L      -0.088400
     51 C39          4.8330    -1.2100    -0.6100 c3         1 A4L      -0.080400
     52 C40          5.6560    -2.4010    -0.0680 c3         1 A4L      -0.078400
     53 C41          6.7490    -2.8690    -1.0510 c3         1 A4L       0.151800
     54 N8           7.5150    -4.0060    -0.5080 n8         1 A4L      -0.995200
     55 C42         -0.9210    -0.2250    -3.0740 c3         1 A4L      -0.069400
     56 C43         -0.9020     1.2850    -2.7380 c3         1 A4L      -0.078400
     57 C44         -2.2270     2.0040    -3.0770 c3         1 A4L      -0.104400
     58 C45         -2.1850     3.4910    -2.6920 c3         1 A4L       0.136800
     59 N9          -3.4510     4.1780    -3.0070 n8         1 A4L      -1.053200
     60 C46         -1.0930    -4.5020    -6.0790 c          1 A4L       0.565900
     61 O5          -0.4660    -4.0770    -7.0480 o          1 A4L      -0.506100
     62 H281        -2.8060     3.4050     4.8630 hc         1 A4L       0.059700
     63 H282        -3.8220     4.8260     4.4270 hc         1 A4L       0.059700
     64 H283        -3.5060     3.4250     3.3040 hc         1 A4L       0.059700
     65 H1          -1.2830     2.9460     2.7520 hn         1 A4L       0.312500
     66 H23          0.7360     5.1170     2.8520 h1         1 A4L       0.082700
     67 H221        -0.0200     3.8780     0.1530 hc         1 A4L       0.063200
     68 H222         1.2080     5.1030     0.4450 hc         1 A4L       0.063200
     69 H211        -0.6600     6.6930     1.1940 hc         1 A4L       0.043200
     70 H212        -1.8190     5.4600     0.7000 hc         1 A4L       0.043200
     71 H201         0.1930     6.9400    -1.0760 hc         1 A4L       0.069700
     72 H202        -0.7120     5.5610    -1.6580 hc         1 A4L       0.069700
     73 H191        -1.7230     7.7400    -2.3370 h1         1 A4L       0.073200
     74 H192        -1.9300     8.1850    -0.6330 h1         1 A4L       0.073200
     75 H18         -3.2540     5.7100    -1.7620 hn         1 A4L       0.401000
     76 H4          -3.8110     9.0300    -2.3370 ha         1 A4L       0.134000
     77 H3          -4.7530    11.3100    -2.2240 ha         1 A4L       0.157000
     78 H14         -3.8780     4.2160    -0.4120 ha         1 A4L       0.153000
     79 H171        -6.5790     1.2910     1.6940 h1         1 A4L       0.057367
     80 H172        -5.2790     1.5020     2.8980 h1         1 A4L       0.057367
     81 H173        -5.0830     0.3440     1.5680 h1         1 A4L       0.057367
     82 H12         -6.6780     3.4680     2.7700 ha         1 A4L       0.146000
     83 H11         -7.1620     5.8790     2.9180 ha         1 A4L       0.140000
     84 HN7         -6.6350     8.1090     2.2660 hn         1 A4L       0.532000
     85 H2          -6.9460    10.2630     1.3240 ha         1 A4L       0.153000
     86 HN11        -6.5270    -0.7200    -3.3140 hn         1 A4L       0.385000
     87 HN12        -7.2210    -1.9830    -4.0400 hn         1 A4L       0.385000
     88 H71         -4.9450    -0.4400    -5.1260 h1         1 A4L       0.055700
     89 H72         -5.7120    -1.8360    -5.9260 h1         1 A4L       0.055700
     90 H151        -5.1480    -3.2670    -3.9270 hc         1 A4L       0.033200
     91 H152        -4.3690    -1.8810    -3.1580 hc         1 A4L       0.033200
     92 H161        -2.7260    -1.7630    -5.0570 hc         1 A4L       0.049700
     93 H162        -3.5010    -3.1500    -5.8110 hc         1 A4L       0.049700
     94 H182        -2.2490    -3.2430    -3.0020 hc         1 A4L       0.055700
     95 H25         -0.5260    -4.7550    -4.0510 h1         1 A4L       0.055700
     96 HN3          1.1790    -2.9230    -2.8390 hn         1 A4L       0.408000
     97 H27          1.1620    -0.4980    -3.5530 h1         1 A4L       0.031700
     98 HN4          2.4870     0.4600    -2.2500 hn         1 A4L       0.324500
     99 H30          2.1450     0.7090     0.6440 h1         1 A4L       0.121700
    100 H33          3.3640     1.4270     2.4330 h1         1 A4L       0.101700
    101 HN5          2.8410     4.3390     1.8200 hn         1 A4L       0.323500
    102 H341         5.5200     2.1270     3.4630 hc         1 A4L       0.058700
    103 H342         5.0830     3.8210     3.2590 hc         1 A4L       0.058700
    104 H351         3.5150     1.7910     4.9510 hc         1 A4L       0.057200
    105 H352         3.1170     3.5010     4.7930 hc         1 A4L       0.057200
    106 H361         5.3340     4.1150     5.8020 hc         1 A4L       0.037200
    107 H362         5.7230     2.4130     6.0030 hc         1 A4L       0.037200
    108 H371         3.3480     3.8490     7.3350 h1         1 A4L       0.029700
    109 H372         4.9100     3.5050     8.1160 h1         1 A4L       0.029700
    110 HN61         3.3320     1.8790     8.7210 hn         1 A4L       0.394000
    111 HN62         4.5120     1.1870     7.8660 hn         1 A4L       0.394000
    112 H381         3.0650    -1.5840     0.5880 hc         1 A4L       0.060200
    113 H382         4.2020    -0.4810     1.3330 hc         1 A4L       0.060200
    114 H391         4.3720    -1.5020    -1.5610 hc         1 A4L       0.041700
    115 H392         5.5140    -0.3780    -0.8260 hc         1 A4L       0.041700
    116 H401         6.1230    -2.1130     0.8820 hc         1 A4L       0.049700
    117 H402         4.9800    -3.2380     0.1450 hc         1 A4L       0.049700
    118 H411         6.2860    -3.1790    -1.9990 h1         1 A4L       0.025700
    119 H412         7.4430    -2.0430    -1.2560 h1         1 A4L       0.025700
    120 HN81         8.0200    -3.6970     0.3310 hn         1 A4L       0.395000
    121 HN82         8.2670    -4.2460    -1.1650 hn         1 A4L       0.395000
    122 H421        -1.6940    -0.7200    -2.4730 hc         1 A4L       0.065200
    123 H422        -1.2120    -0.3330    -4.1240 hc         1 A4L       0.065200
    124 H431        -0.0830     1.7660    -3.2880 hc         1 A4L       0.047700
    125 H432        -0.6920     1.4210    -1.6690 hc         1 A4L       0.047700
    126 H441        -2.4280     1.9090    -4.1520 hc         1 A4L       0.047700
    127 H442        -3.0520     1.5130    -2.5460 hc         1 A4L       0.047700
    128 H451        -1.3640     3.9940    -3.2230 h1         1 A4L       0.049200
    129 H452        -1.9980     3.5700    -1.6110 h1         1 A4L       0.049200
    130 HN91        -4.2320     3.5720    -2.7220 hn         1 A4L       0.415500
    131 HN92        -3.5610     4.2080    -4.0300 hn         1 A4L       0.415500
    132 HC46        -1.8040    -5.3500    -6.1920 h4         1 A4L      -0.002800
    133 C31          3.7360     1.7450    -0.3640 c          1 A4L       0.485100
    134 C29          1.0020    -0.6820    -1.4150 c          1 A4L       0.591100
    135 N2          -0.0660    -2.7350    -4.5350 n7         1 A4L      -0.647200
    136 H181        -2.9000    -4.5990    -3.8950 hc         1 A4L       0.055700
    137 C16         -3.2710    -2.6890    -4.8420 c3         1 A4L      -0.073400
    138 HN2          0.7270    -2.8130    -5.1990 hn         1 A4L       0.416000
@<TRIPOS>BOND
     1     1     2 2   
     2     2     3 1   
     3     2     4 1   
     4     3    62 1   
     5     3    63 1   
     6     3    64 1   
     7     4     5 1   
     8     4    65 1   
     9     5     6 1   
    10     5     7 1   
    11     5    66 1   
    12     6    43 1   
    13     6    44 2   
    14     7     8 1   
    15     7    67 1   
    16     7    68 1   
    17     8     9 1   
    18     8    69 1   
    19     8    70 1   
    20     9    10 1   
    21     9    71 1   
    22     9    72 1   
    23    10    11 1   
    24    10    73 1   
    25    10    74 1   
    26    11    12 2   
    27    11    75 1   
    28    12    13 1   
    29    12    18 1   
    30    13    14 ar  
    31    13    27 ar  
    32    14    15 ar  
    33    14    76 1   
    34    15    16 ar  
    35    15    77 1   
    36    16    17 1   
    37    16    28 ar  
    38    18    19 ar  
    39    18    25 ar  
    40    19    20 ar  
    41    19    78 1   
    42    20    21 1   
    43    20    23 ar  
    44    21    22 1   
    45    22    79 1   
    46    22    80 1   
    47    22    81 1   
    48    23    24 ar  
    49    23    82 1   
    50    24    25 ar  
    51    24    83 1   
    52    25    26 1   
    53    26    27 1   
    54    26    84 1   
    55    27    28 ar  
    56    28    85 1   
    57    29    30 1   
    58    29    86 1   
    59    29    87 1   
    60    30    31 1   
    61    30    88 1   
    62    30    89 1   
    63    31    90 1   
    64    31    91 1   
    65    31   137 1   
    66    32    33 1   
    67    32    94 1   
    68    32   136 1   
    69    32   137 1   
    70    33    60 1   
    71    33    95 1   
    72    33   135 1   
    73    34    35 1   
    74    34    96 1   
    75    34   135 1   
    76    35    55 1   
    77    35    97 1   
    78    35   134 1   
    79    36   134 2   
    80    37    38 1   
    81    37    98 1   
    82    37   134 1   
    83    38    50 1   
    84    38    99 1   
    85    38   133 1   
    86    39   133 2   
    87    40    41 2   
    88    40    42 1   
    89    40   133 1   
    90    42    43 1   
    91    42    45 1   
    92    42   100 1   
    93    43   101 1   
    94    45    46 1   
    95    45   102 1   
    96    45   103 1   
    97    46    47 1   
    98    46   104 1   
    99    46   105 1   
   100    47    48 1   
   101    47   106 1   
   102    47   107 1   
   103    48    49 1   
   104    48   108 1   
   105    48   109 1   
   106    49   110 1   
   107    49   111 1   
   108    50    51 1   
   109    50   112 1   
   110    50   113 1   
   111    51    52 1   
   112    51   114 1   
   113    51   115 1   
   114    52    53 1   
   115    52   116 1   
   116    52   117 1   
   117    53    54 1   
   118    53   118 1   
   119    53   119 1   
   120    54   120 1   
   121    54   121 1   
   122    55    56 1   
   123    55   122 1   
   124    55   123 1   
   125    56    57 1   
   126    56   124 1   
   127    56   125 1   
   128    57    58 1   
   129    57   126 1   
   130    57   127 1   
   131    58    59 1   
   132    58   128 1   
   133    58   129 1   
   134    59   130 1   
   135    59   131 1   
   136    60    61 2   
   137    60   132 1   
   138    92   137 1   
   139    93   137 1   
   140   135   138 1   
@<TRIPOS>SUBSTRUCTURE
     1 A4L         1 TEMP              0 ****  ****    0 ROOT
