@<TRIPOS>MOLECULE
A4M
   75    80     1     0     0
SMALL
No Charge or Current Charge


@<TRIPOS>ATOM
      1 C4          -0.4500    21.2390    31.9220 ca         1 A4M      -0.102600
      2 C5           1.0540    21.8320    30.5020 cc         1 A4M       0.405700
      3 C6           2.0160    19.5550    29.9020 cy         1 A4M       0.054300
      4 N1          -1.8830    19.9840    33.3780 nb         1 A4M      -0.305000
      5 C7           1.5080    18.2100    29.2830 cy         1 A4M       0.106000
      6 N2          -0.2290    18.8700    32.0070 nb         1 A4M      -0.227000
      7 C9           2.4870    17.2850    26.1030 cc         1 A4M       0.196500
      8 C11          4.0410    15.8560    25.3570 cd         1 A4M      -0.147300
      9 C12          5.2390    14.9630    25.1440 c3         1 A4M       0.232100
     10 N3           0.1050    22.3600    31.2970 nd         1 A4M      -0.548100
     11 C13          6.6110    16.7140    24.0330 c6         1 A4M       0.162800
     12 C14          7.4210    17.0970    22.7530 c6         1 A4M       0.174300
     13 C15          9.4090    16.4580    21.3140 c3         1 A4M       0.195500
     14 N4           1.0990    20.4350    30.6130 na         1 A4M      -0.286300
     15 N5           2.5650    18.4120    28.2340 nj         1 A4M      -0.436800
     16 C25          2.5000    19.8980    28.4530 cy         1 A4M       0.106000
     17 C3           0.1440    20.0700    31.5210 ca         1 A4M       0.135500
     18 C1          -1.2340    18.8870    32.9160 ca         1 A4M       0.200300
     19 C2          -1.6650    17.5470    33.4840 c3         1 A4M      -0.132400
     20 C           -1.4880    21.1630    32.8730 ca         1 A4M       0.454900
     21 N           -2.1380    22.2620    33.3400 nv         1 A4M      -1.068900
     22 C24          3.7140    16.6510    26.4110 cc         1 A4M      -0.207000
     23 N7           2.9960    16.0390    24.4450 na         1 A4M       0.148800
     24 N6           2.0310    16.9250    24.9080 nd         1 A4M      -0.453800
     25 N8           6.0340    15.3350    23.9530 n3         1 A4M      -0.731600
     26 C23          7.1160    14.3490    23.6530 c6         1 A4M       0.162800
     27 C22          7.9280    14.7240    22.3720 c6         1 A4M       0.174300
     28 N9           8.5050    16.1040    22.4490 n3         1 A4M      -0.747600
     29 C21         10.2070    17.7610    21.6030 c3         1 A4M      -0.084900
     30 C20         11.6480    17.7540    21.0360 c3         1 A4M      -0.068400
     31 C19         11.7770    17.8820    19.5030 c3         1 A4M      -0.072400
     32 C18         10.9750    16.8540    18.6730 c3         1 A4M      -0.072400
     33 C17          9.4490    17.0820    18.7260 c3         1 A4M      -0.068400
     34 C16          8.7030    16.4390    19.9210 c3         1 A4M      -0.084900
     35 H1           1.7190    22.3830    29.8480 h5         1 A4M       0.064800
     36 H2           2.8600    19.3900    30.5820 h1         1 A4M       0.087700
     37 H3           0.4570    18.2390    28.9690 h1         1 A4M       0.070450
     38 H4           1.6870    17.3360    29.9180 h1         1 A4M       0.070450
     39 H5           1.8580    15.5750    22.7250 h1         1 A4M       0.062367
     40 H6           3.6020    15.8540    22.4380 h1         1 A4M       0.062367
     41 H7           3.0530    14.3350    23.2060 h1         1 A4M       0.062367
     42 H8           4.8760    13.9310    25.0440 h1         1 A4M       0.048200
     43 H9           5.8680    14.9960    26.0450 h1         1 A4M       0.048200
     44 H10          7.2770    16.7940    24.9050 h1         1 A4M       0.040700
     45 H11          5.8140    17.4590    24.1700 h1         1 A4M       0.040700
     46 H12          7.8410    18.1020    22.9010 h1         1 A4M       0.039450
     47 H13          6.7120    17.1660    21.9160 h1         1 A4M       0.039450
     48 H14         10.1670    15.6630    21.2690 h1         1 A4M       0.052700
     49 H15          3.4810    20.3830    28.4180 h1         1 A4M       0.070450
     50 H16          1.7740    20.4750    27.8680 h1         1 A4M       0.070450
     51 H17         -1.5200    16.7390    32.7570 hc         1 A4M       0.059367
     52 H18         -1.0850    17.3000    34.3800 hc         1 A4M       0.059367
     53 H19         -2.7260    17.5520    33.7610 hc         1 A4M       0.059367
     54 H20         -2.6470    22.1770    34.2150 hn         1 A4M       0.506500
     55 H21         -1.7120    23.1660    33.1450 hn         1 A4M       0.506500
     56 H22          4.2900    16.7800    27.3220 ha         1 A4M       0.137000
     57 H24          6.6880    13.3450    23.5130 h1         1 A4M       0.040700
     58 H25          7.8130    14.2840    24.5010 h1         1 A4M       0.040700
     59 H26          7.2570    14.6380    21.5050 h1         1 A4M       0.039450
     60 H27          8.7290    13.9830    22.2350 h1         1 A4M       0.039450
     61 H29         10.2950    17.8830    22.6890 hc         1 A4M       0.042200
     62 H30          9.6570    18.6380    21.2380 hc         1 A4M       0.042200
     63 H31         12.1570    16.8380    21.3630 hc         1 A4M       0.037700
     64 H32         12.2020    18.5840    21.4920 hc         1 A4M       0.037700
     65 H33         12.8380    17.7870    19.2420 hc         1 A4M       0.037200
     66 H34         11.4810    18.8950    19.2030 hc         1 A4M       0.037200
     67 H35         11.2230    15.8310    18.9850 hc         1 A4M       0.037200
     68 H36         11.2960    16.9460    17.6280 hc         1 A4M       0.037200
     69 H37          9.2450    18.1600    18.7120 hc         1 A4M       0.037700
     70 H38          9.0050    16.6860    17.8040 hc         1 A4M       0.037700
     71 H39          7.7250    16.9270    19.9890 hc         1 A4M       0.042200
     72 H40          8.5000    15.3930    19.6620 hc         1 A4M       0.042200
     73 C8           1.7880    18.2560    27.0310 c          1 A4M       0.549600
     74 C10          2.8670    15.4120    23.1210 c3         1 A4M       0.076900
     75 O            0.7190    18.7630    26.6830 o          1 A4M      -0.579100
@<TRIPOS>BOND
     1     1    10 1   
     2     1    17 ar  
     3     1    20 ar  
     4     2    10 2   
     5     2    14 1   
     6     2    35 1   
     7     3     5 1   
     8     3    14 1   
     9     3    16 1   
    10     3    36 1   
    11     4    18 ar  
    12     4    20 ar  
    13     5    15 1   
    14     5    37 1   
    15     5    38 1   
    16     6    17 ar  
    17     6    18 ar  
    18     7    22 1   
    19     7    24 2   
    20     7    73 1   
    21     8     9 1   
    22     8    22 2   
    23     8    23 1   
    24     9    25 1   
    25     9    42 1   
    26     9    43 1   
    27    11    12 1   
    28    11    25 1   
    29    11    44 1   
    30    11    45 1   
    31    12    28 1   
    32    12    46 1   
    33    12    47 1   
    34    13    28 1   
    35    13    29 1   
    36    13    34 1   
    37    13    48 1   
    38    14    17 1   
    39    15    16 1   
    40    15    73 1   
    41    16    49 1   
    42    16    50 1   
    43    18    19 1   
    44    19    51 1   
    45    19    52 1   
    46    19    53 1   
    47    20    21 1   
    48    21    54 1   
    49    21    55 1   
    50    22    56 1   
    51    23    24 1   
    52    23    74 1   
    53    25    26 1   
    54    26    27 1   
    55    26    57 1   
    56    26    58 1   
    57    27    28 1   
    58    27    59 1   
    59    27    60 1   
    60    29    30 1   
    61    29    61 1   
    62    29    62 1   
    63    30    31 1   
    64    30    63 1   
    65    30    64 1   
    66    31    32 1   
    67    31    65 1   
    68    31    66 1   
    69    32    33 1   
    70    32    67 1   
    71    32    68 1   
    72    33    34 1   
    73    33    69 1   
    74    33    70 1   
    75    34    71 1   
    76    34    72 1   
    77    39    74 1   
    78    40    74 1   
    79    41    74 1   
    80    73    75 2   
@<TRIPOS>SUBSTRUCTURE
     1 A4M         1 TEMP              0 ****  ****    0 ROOT
