@<TRIPOS>MOLECULE
A4M
   75    80     1     0     0
SMALL
abcg2


@<TRIPOS>ATOM
      1 C4           1.7240    20.9840    31.2010 ca         1 A4M      -0.102600
      2 C5           3.1030    19.6300    30.2980 cc         1 A4M       0.405700
      3 C6           1.6260    17.5680    30.0390 cy         1 A4M       0.054300
      4 N1          -0.2810    21.8210    32.1240 nb         1 A4M      -0.305000
      5 C7           0.4340    17.3510    29.0720 cy         1 A4M       0.106000
      6 N2          -0.2640    19.5780    31.2880 nb         1 A4M      -0.227000
      7 C9           2.1740    15.5280    26.1920 cc         1 A4M       0.196500
      8 C11          4.0810    14.7220    25.3890 cd         1 A4M      -0.147300
      9 C12          5.4800    14.2880    25.1080 c3         1 A4M       0.232100
     10 N3           3.0330    20.8520    30.7700 nd         1 A4M      -0.548100
     11 C13          6.2550    16.4400    24.2950 c6         1 A4M       0.162800
     12 C14          6.8270    17.1700    23.0910 c6         1 A4M       0.174300
     13 C15          8.8660    17.3130    21.6820 c3         1 A4M       0.195500
     14 N4           1.9110    18.9460    30.3840 na         1 A4M      -0.286300
     15 N5           1.3450    16.6280    28.1860 nj         1 A4M      -0.436800
     16 C25          2.5460    16.9110    28.9850 cy         1 A4M       0.106000
     17 C3           1.0170    19.8070    30.9780 ca         1 A4M       0.135500
     18 C1          -0.8530    20.6320    31.8600 ca         1 A4M       0.200300
     19 C2          -2.2940    20.4920    32.2500 c3         1 A4M      -0.132400
     20 C            1.0060    22.0340    31.8070 ca         1 A4M       0.454900
     21 N            1.5540    23.2330    32.0680 nv         1 A4M      -1.068900
     22 C24          3.5410    15.3420    26.4970 cc         1 A4M      -0.207000
     23 N7           3.0580    14.5680    24.5060 na         1 A4M       0.148800
     24 N6           1.9020    15.0510    24.9700 nd         1 A4M      -0.453800
     25 N8           6.0770    15.0210    23.9960 n3         1 A4M      -0.731600
     26 C23          7.3440    14.4230    23.5850 c6         1 A4M       0.162800
     27 C22          7.9100    15.1590    22.3810 c6         1 A4M       0.174300
     28 N9           8.0950    16.5690    22.6970 n3         1 A4M      -0.747600
     29 C21          9.3090    18.6760    22.2350 c3         1 A4M      -0.084900
     30 C20         10.6980    19.1010    21.7460 c3         1 A4M      -0.068400
     31 C19         10.7890    19.5480    20.2870 c3         1 A4M      -0.072400
     32 C18         10.2310    18.5690    19.2490 c3         1 A4M      -0.072400
     33 C17          8.7040    18.4200    19.3140 c3         1 A4M      -0.068400
     34 C16          8.1640    17.3840    20.3090 c3         1 A4M      -0.084900
     35 H1           3.9870    19.1760    29.8820 h5         1 A4M       0.064800
     36 H2           1.5410    16.9800    30.9510 h1         1 A4M       0.087700
     37 H3           0.0440    18.2680    28.6290 h1         1 A4M       0.070450
     38 H4          -0.3860    16.7500    29.4620 h1         1 A4M       0.070450
     39 H5           2.1330    13.6150    22.9230 h1         1 A4M       0.062367
     40 H6           3.4090    14.7640    22.4470 h1         1 A4M       0.062367
     41 H7           3.8480    13.1970    23.1490 h1         1 A4M       0.062367
     42 H8           5.4920    13.2260    24.8510 h1         1 A4M       0.048200
     43 H9           6.0620    14.4020    26.0360 h1         1 A4M       0.048200
     44 H10          6.9270    16.5760    25.1600 h1         1 A4M       0.040700
     45 H11          5.2870    16.8710    24.5550 h1         1 A4M       0.040700
     46 H12          6.9860    18.2160    23.3510 h1         1 A4M       0.039450
     47 H13          6.0810    17.1370    22.2810 h1         1 A4M       0.039450
     48 H14          9.7780    16.7230    21.5520 h1         1 A4M       0.052700
     49 H15          3.0760    16.0270    29.3370 h1         1 A4M       0.070450
     50 H16          3.2400    17.5870    28.4870 h1         1 A4M       0.070450
     51 H17         -2.6560    19.4900    32.0290 hc         1 A4M       0.059367
     52 H18         -2.4190    20.6950    33.3160 hc         1 A4M       0.059367
     53 H19         -2.9030    21.2200    31.7090 hc         1 A4M       0.059367
     54 H20          1.0210    23.9260    32.5670 hn         1 A4M       0.506500
     55 H21          2.5340    23.3930    31.9100 hn         1 A4M       0.506500
     56 H22          4.0860    15.6090    27.3840 ha         1 A4M       0.137000
     57 H24          7.1690    13.3760    23.3290 h1         1 A4M       0.040700
     58 H25          8.0810    14.4530    24.4070 h1         1 A4M       0.040700
     59 H26          7.2290    15.0090    21.5280 h1         1 A4M       0.039450
     60 H27          8.8770    14.7290    22.1130 h1         1 A4M       0.039450
     61 H29          9.3430    18.5890    23.3240 hc         1 A4M       0.042200
     62 H30          8.5750    19.4540    22.0040 hc         1 A4M       0.042200
     63 H31         11.3870    18.2640    21.9100 hc         1 A4M       0.037700
     64 H32         11.0570    19.9200    22.3760 hc         1 A4M       0.037700
     65 H33         11.8390    19.7570    20.0570 hc         1 A4M       0.037200
     66 H34         10.2550    20.4980    20.1730 hc         1 A4M       0.037200
     67 H35         10.7140    17.5910    19.3500 hc         1 A4M       0.037200
     68 H36         10.5020    18.9420    18.2570 hc         1 A4M       0.037200
     69 H37          8.2790    19.4020    19.5420 hc         1 A4M       0.037700
     70 H38          8.3250    18.1530    18.3240 hc         1 A4M       0.037700
     71 H39          7.1010    17.5890    20.4610 hc         1 A4M       0.042200
     72 H40          8.2200    16.3930    19.8510 hc         1 A4M       0.042200
     73 C8           1.0650    16.1330    26.9680 c          1 A4M       0.549600
     74 C10          3.1180    14.0020    23.1690 c3         1 A4M       0.076900
     75 O           -0.0910    16.1820    26.5310 o          1 A4M      -0.579100
@<TRIPOS>BOND
     1     1    10 1   
     2     1    17 ar  
     3     1    20 ar  
     4     2    10 2   
     5     2    14 1   
     6     2    35 1   
     7     3     5 1   
     8     3    14 1   
     9     3    16 1   
    10     3    36 1   
    11     4    18 ar  
    12     4    20 ar  
    13     5    15 1   
    14     5    37 1   
    15     5    38 1   
    16     6    17 ar  
    17     6    18 ar  
    18     7    22 1   
    19     7    24 2   
    20     7    73 1   
    21     8     9 1   
    22     8    22 2   
    23     8    23 1   
    24     9    25 1   
    25     9    42 1   
    26     9    43 1   
    27    11    12 1   
    28    11    25 1   
    29    11    44 1   
    30    11    45 1   
    31    12    28 1   
    32    12    46 1   
    33    12    47 1   
    34    13    28 1   
    35    13    29 1   
    36    13    34 1   
    37    13    48 1   
    38    14    17 1   
    39    15    16 1   
    40    15    73 1   
    41    16    49 1   
    42    16    50 1   
    43    18    19 1   
    44    19    51 1   
    45    19    52 1   
    46    19    53 1   
    47    20    21 1   
    48    21    54 1   
    49    21    55 1   
    50    22    56 1   
    51    23    24 1   
    52    23    74 1   
    53    25    26 1   
    54    26    27 1   
    55    26    57 1   
    56    26    58 1   
    57    27    28 1   
    58    27    59 1   
    59    27    60 1   
    60    29    30 1   
    61    29    61 1   
    62    29    62 1   
    63    30    31 1   
    64    30    63 1   
    65    30    64 1   
    66    31    32 1   
    67    31    65 1   
    68    31    66 1   
    69    32    33 1   
    70    32    67 1   
    71    32    68 1   
    72    33    34 1   
    73    33    69 1   
    74    33    70 1   
    75    34    71 1   
    76    34    72 1   
    77    39    74 1   
    78    40    74 1   
    79    41    74 1   
    80    73    75 2   
@<TRIPOS>SUBSTRUCTURE
     1 A4M         1 TEMP              0 ****  ****    0 ROOT
