@<TRIPOS>MOLECULE
A4N
   30    31     1     0     0
SMALL
No Charge or Current Charge


@<TRIPOS>ATOM
      1 Cl          -0.0800    -2.0100    -1.2720 cl         1 A4N      -0.203000
      2 C13          0.7430    -0.6870    -0.4460 ca         1 A4N       0.127000
      3 C12          2.1420    -0.7460    -0.3220 ca         1 A4N      -0.084000
      4 C10          2.8500     0.2930     0.3120 ca         1 A4N      -0.078300
      5 C11          4.3650     0.2180     0.4460 c3         1 A4N       0.197100
      6 N            5.0360     0.5800    -0.8160 n8         1 A4N      -1.000200
      7 C9           2.1400     1.3980     0.8190 ca         1 A4N      -0.114000
      8 C8           0.7420     1.4600     0.6970 ca         1 A4N      -0.095000
      9 C7           0.0200     0.4180     0.0700 cp         1 A4N      -0.028000
     10 C6          -1.4630     0.5060    -0.0440 cp         1 A4N      -0.043000
     11 C1          -2.3210    -0.2180     0.8290 ca         1 A4N      -0.047300
     12 C           -1.7610    -1.1100     1.9330 c3         1 A4N      -0.050800
     13 C5          -2.0400     1.3360    -1.0340 ca         1 A4N      -0.089000
     14 C4          -3.4330     1.4390    -1.1690 ca         1 A4N      -0.117000
     15 C3          -4.2730     0.7130    -0.3110 ca         1 A4N      -0.102000
     16 C2          -3.7190    -0.1100     0.6840 ca         1 A4N      -0.114000
     17 H1           2.6800    -1.6010    -0.7260 ha         1 A4N       0.149000
     18 H2           4.7040     0.9020     1.2380 h1         1 A4N       0.036700
     19 H3           4.6620    -0.8020     0.7270 h1         1 A4N       0.036700
     20 H4           4.8030     1.5540    -1.0420 hn         1 A4N       0.399000
     21 H5           6.0510     0.6030    -0.6580 hn         1 A4N       0.399000
     22 H7           2.6720     2.2110     1.3100 ha         1 A4N       0.113000
     23 H8           0.2060     2.3180     1.0950 ha         1 A4N       0.120000
     24 H9          -0.9650    -0.6010     2.4880 hc         1 A4N       0.045367
     25 H10         -2.5330    -1.3930     2.6580 hc         1 A4N       0.045367
     26 H11         -1.3430    -2.0340     1.5170 hc         1 A4N       0.045367
     27 H12         -1.3940     1.8990    -1.7040 ha         1 A4N       0.115000
     28 H13         -3.8600     2.0790    -1.9380 ha         1 A4N       0.113000
     29 H14         -5.3530     0.7910    -0.4140 ha         1 A4N       0.112000
     30 H15         -4.3820    -0.6630     1.3450 ha         1 A4N       0.111000
@<TRIPOS>BOND
     1     1     2 1   
     2     2     3 ar  
     3     2     9 ar  
     4     3     4 ar  
     5     3    17 1   
     6     4     5 1   
     7     4     7 ar  
     8     5     6 1   
     9     5    18 1   
    10     5    19 1   
    11     6    20 1   
    12     6    21 1   
    13     7     8 ar  
    14     7    22 1   
    15     8     9 ar  
    16     8    23 1   
    17     9    10 1   
    18    10    11 ar  
    19    10    13 ar  
    20    11    12 1   
    21    11    16 ar  
    22    12    24 1   
    23    12    25 1   
    24    12    26 1   
    25    13    14 ar  
    26    13    27 1   
    27    14    15 ar  
    28    14    28 1   
    29    15    16 ar  
    30    15    29 1   
    31    16    30 1   
@<TRIPOS>SUBSTRUCTURE
     1 A4N         1 TEMP              0 ****  ****    0 ROOT
