@<TRIPOS>MOLECULE
A4N
   30    31     1     0     0
SMALL
abcg2


@<TRIPOS>ATOM
      1 CL           0.0120    -1.7460    -1.4110 cl         1 A4N      -0.203000
      2 C13          0.7780    -0.4770    -0.5030 ca         1 A4N       0.127000
      3 C12          2.1600    -0.4880    -0.4010 ca         1 A4N      -0.084000
      4 C10          2.8120     0.5170     0.3050 ca         1 A4N      -0.078300
      5 C11          4.3110     0.5060     0.4680 c3         1 A4N       0.197100
      6 N            4.9830    -0.1700    -0.6260 n8         1 A4N      -1.000200
      7 C9           2.0470     1.5260     0.8830 ca         1 A4N      -0.114000
      8 C8           0.6660     1.5180     0.7750 ca         1 A4N      -0.095000
      9 C7          -0.0050     0.5130     0.0830 cp         1 A4N      -0.028000
     10 C6          -1.4830     0.5380    -0.0260 cp         1 A4N      -0.043000
     11 C1          -2.2760    -0.2930     0.7770 ca         1 A4N      -0.047300
     12 C           -1.6570    -1.2420     1.7600 c3         1 A4N      -0.050800
     13 C5          -2.0820     1.4270    -0.9140 ca         1 A4N      -0.089000
     14 C4          -3.4640     1.4980    -1.0270 ca         1 A4N      -0.117000
     15 C3          -4.2550     0.6740    -0.2400 ca         1 A4N      -0.102000
     16 C2          -3.6600    -0.2080     0.6520 ca         1 A4N      -0.114000
     17 H1           2.7360    -1.2700    -0.8750 ha         1 A4N       0.149000
     18 H2           4.6480     1.5380     0.6330 h1         1 A4N       0.036700
     19 H3           4.5500    -0.0330     1.3900 h1         1 A4N       0.036700
     20 H4           4.9550     0.4110    -1.4540 hn         1 A4N       0.399000
     21 H5           5.9610    -0.2850    -0.3960 hn         1 A4N       0.399000
     22 H7           2.5350     2.3290     1.4210 ha         1 A4N       0.113000
     23 H8           0.0880     2.3110     1.2340 ha         1 A4N       0.120000
     24 H9          -0.9990    -0.7240     2.4590 hc         1 A4N       0.045367
     25 H10         -2.4190    -1.7600     2.3420 hc         1 A4N       0.045367
     26 H11         -1.0550    -2.0020     1.2590 hc         1 A4N       0.045367
     27 H12         -1.4560     2.0660    -1.5240 ha         1 A4N       0.115000
     28 H13         -3.9170     2.1920    -1.7230 ha         1 A4N       0.113000
     29 H14         -5.3340     0.7180    -0.3170 ha         1 A4N       0.112000
     30 H15         -4.2860    -0.8420     1.2690 ha         1 A4N       0.111000
@<TRIPOS>BOND
     1     1     2 1   
     2     2     3 ar  
     3     2     9 ar  
     4     3     4 ar  
     5     3    17 1   
     6     4     5 1   
     7     4     7 ar  
     8     5     6 1   
     9     5    18 1   
    10     5    19 1   
    11     6    20 1   
    12     6    21 1   
    13     7     8 ar  
    14     7    22 1   
    15     8     9 ar  
    16     8    23 1   
    17     9    10 1   
    18    10    11 ar  
    19    10    13 ar  
    20    11    12 1   
    21    11    16 ar  
    22    12    24 1   
    23    12    25 1   
    24    12    26 1   
    25    13    14 ar  
    26    13    27 1   
    27    14    15 ar  
    28    14    28 1   
    29    15    16 ar  
    30    15    29 1   
    31    16    30 1   
@<TRIPOS>SUBSTRUCTURE
     1 A4N         1 TEMP              0 ****  ****    0 ROOT
