@<TRIPOS>MOLECULE
A4O
   23    23     1     0     0
SMALL
abcg2


@<TRIPOS>ATOM
      1 N1          59.2910    31.4930    -6.7280 ns         1 A4O      -0.229900
      2 C2          57.0200    32.7090    -9.2520 ca         1 A4O      -0.272900
      3 C4          55.3660    33.0360   -11.0020 ca         1 A4O      -0.198000
      4 C5          55.5060    34.4120   -10.8980 ca         1 A4O       0.197100
      5 C6          57.8340    31.8510    -8.4030 ce         1 A4O       0.427800
      6 N2          60.0260    33.2580    -5.4820 nt         1 A4O      -0.524000
      7 C7          60.0560    31.9520    -5.7150 cs         1 A4O       0.496400
      8 C           56.3990    34.9520    -9.9660 ca         1 A4O      -0.249000
      9 C1          57.1320    34.1030    -9.1700 ca         1 A4O       0.006000
     10 C3          56.1100    32.1860   -10.1890 ca         1 A4O       0.210100
     11 N           58.5360    32.3350    -7.4550 n2         1 A4O      -0.492300
     12 O           54.7600    35.1760   -11.7110 oh         1 A4O      -0.523100
     13 O1          55.8850    30.8740   -10.3760 oh         1 A4O      -0.528100
     14 S           60.9860    30.8740    -4.8220 s          1 A4O      -0.661400
     15 H6          59.3110    30.4970    -6.9200 hn         1 A4O       0.347500
     16 H2          54.6700    32.6130   -11.7150 ha         1 A4O       0.149000
     17 H5          57.8590    30.7770    -8.5980 h4         1 A4O      -0.021200
     18 H7          60.5800    33.6390    -4.7370 hn         1 A4O       0.340000
     19 H8          59.4580    33.8800    -6.0370 hn         1 A4O       0.340000
     20 H           56.5220    36.0240    -9.8750 ha         1 A4O       0.121000
     21 H1          57.8300    34.5250    -8.4590 ha         1 A4O       0.124000
     22 H3          54.9370    36.1120   -11.5590 ho         1 A4O       0.472000
     23 H4          56.3330    30.3210    -9.7290 ho         1 A4O       0.470000
@<TRIPOS>BOND
     1     1     7 1   
     2     1    11 1   
     3     1    15 1   
     4     2     5 1   
     5     2     9 ar  
     6     2    10 ar  
     7     3     4 ar  
     8     3    10 ar  
     9     3    16 1   
    10     4     8 ar  
    11     4    12 1   
    12     5    11 2   
    13     5    17 1   
    14     6     7 1   
    15     6    18 1   
    16     6    19 1   
    17     7    14 2   
    18     8     9 ar  
    19     8    20 1   
    20     9    21 1   
    21    10    13 1   
    22    12    22 1   
    23    13    23 1   
@<TRIPOS>SUBSTRUCTURE
     1 A4O         1 TEMP              0 ****  ****    0 ROOT
