@<TRIPOS>MOLECULE
A4O
   23    23     1     0     0
SMALL
No Charge or Current Charge


@<TRIPOS>ATOM
      1 N1          59.9850    31.7280    -7.1500 ns         1 A4O      -0.229900
      2 C2          57.1690    32.8490    -9.3070 ca         1 A4O      -0.272900
      3 C4          55.1210    33.0870   -10.6160 ca         1 A4O      -0.198000
      4 C5          55.4410    34.4180   -10.8980 ca         1 A4O       0.197100
      5 C6          58.0920    32.0310    -8.4610 ce         1 A4O       0.427800
      6 N2          59.1850    32.6780    -5.2280 nt         1 A4O      -0.524000
      7 C7          60.0060    31.7660    -5.7720 cs         1 A4O       0.496400
      8 C           56.6200    34.9750   -10.3910 ca         1 A4O      -0.249000
      9 C1          57.4820    34.1980    -9.6000 ca         1 A4O       0.006000
     10 C3          55.9730    32.3030    -9.8280 ca         1 A4O       0.210100
     11 N           59.1850    32.5250    -7.9630 n2         1 A4O      -0.492300
     12 O           54.6050    35.1680   -11.6650 oh         1 A4O      -0.523100
     13 O1          55.6070    31.0110    -9.5870 oh         1 A4O      -0.528100
     14 S           60.9620    30.7870    -4.8230 s          1 A4O      -0.661400
     15 H6          60.6310    31.0570    -7.5630 hn         1 A4O       0.347500
     16 H2          54.2050    32.6590   -11.0110 ha         1 A4O       0.149000
     17 H5          57.8070    30.9960    -8.2620 h4         1 A4O      -0.021200
     18 H7          59.1350    32.7860    -4.2270 hn         1 A4O       0.340000
     19 H8          58.6380    33.2710    -5.8350 hn         1 A4O       0.340000
     20 H           56.8790    36.0090   -10.6050 ha         1 A4O       0.121000
     21 H1          58.3940    34.6540    -9.2170 ha         1 A4O       0.124000
     22 H3          54.9930    36.0640   -11.7520 ho         1 A4O       0.472000
     23 H4          56.2910    30.5810    -9.0360 ho         1 A4O       0.470000
@<TRIPOS>BOND
     1     1     7 1   
     2     1    11 1   
     3     1    15 1   
     4     2     5 1   
     5     2     9 ar  
     6     2    10 ar  
     7     3     4 ar  
     8     3    10 ar  
     9     3    16 1   
    10     4     8 ar  
    11     4    12 1   
    12     5    11 2   
    13     5    17 1   
    14     6     7 1   
    15     6    18 1   
    16     6    19 1   
    17     7    14 2   
    18     8     9 ar  
    19     8    20 1   
    20     9    21 1   
    21    10    13 1   
    22    12    22 1   
    23    13    23 1   
@<TRIPOS>SUBSTRUCTURE
     1 A4O         1 TEMP              0 ****  ****    0 ROOT
