@<TRIPOS>MOLECULE
A4P
   68    72     1     0     0
SMALL
abcg2


@<TRIPOS>ATOM
      1 N9R         -0.9190    17.5310    21.9810 na         1 A4P      -0.321300
      2 C8R         -0.8820    18.9000    22.0760 cc         1 A4P       0.379700
      3 N7R         -0.1680    19.4750    21.1620 nd         1 A4P      -0.453100
      4 C5R          0.3160    18.4340    20.4120 ca         1 A4P      -0.034600
      5 C6R          1.1880    18.3900    19.3090 ca         1 A4P       0.482900
      6 N6R          1.7900    19.4810    18.8150 nv         1 A4P      -1.039900
      7 N1R          1.4050    17.2010    18.7350 nb         1 A4P      -0.328000
      8 C1R         -1.4490    16.7240    23.0680 c5         1 A4P       0.339300
      9 C2R          0.8460    16.1170    19.2640 ca         1 A4P       0.191900
     10 N3R          0.0820    16.0280    20.3370 nb         1 A4P      -0.299000
     11 C4R         -0.1470    17.2170    20.8920 ca         1 A4P       0.155500
     12 O5           2.0570    15.8220    23.2840 os         1 A4P      -0.583400
     13 C4          -0.0280    15.3500    24.3270 c5         1 A4P       0.177300
     14 O4          -0.5310    16.6650    24.1240 os         1 A4P      -0.415000
     15 C3          -0.5410    14.5170    23.1510 c5         1 A4P       0.092300
     16 O3          -0.8250    13.2100    23.5850 oh         1 A4P      -0.745000
     17 C2          -1.8010    15.2820    22.7130 c5         1 A4P       0.091300
     18 O2          -2.8950    14.9210    23.5160 oh         1 A4P      -0.753000
     19 PA           3.6780    15.7720    23.0200 p5         1 A4P       1.478800
     20 O1A          3.8380    15.9770    21.5500 o          1 A4P      -0.859000
     21 O2A          4.2770    14.5930    23.7210 o          1 A4P      -0.859000
     22 O3A          4.2310    17.0770    23.8490 os         1 A4P      -0.732800
     23 PB           3.6840    18.6180    24.0330 p5         1 A4P       1.544800
     24 O1B          3.5160    18.8340    25.5030 o          1 A4P      -0.886500
     25 O2B          2.5780    18.9170    23.0770 o          1 A4P      -0.886500
     26 O3B          5.0630    19.4170    23.6090 os         1 A4P      -0.719800
     27 PG           5.4630    20.1230    22.1800 p5         1 A4P       1.528800
     28 O1G          5.0590    19.2790    21.0160 o          1 A4P      -0.882000
     29 O2G          6.8800    20.5800    22.3390 o          1 A4P      -0.882000
     30 O3G          4.4950    21.4580    22.3070 os         1 A4P      -0.716800
     31 PD           3.7460    22.3380    21.1490 p5         1 A4P       1.491800
     32 O1D          3.6400    23.7290    21.6920 o          1 A4P      -0.864000
     33 O2D          2.5310    21.6280    20.6330 o          1 A4P      -0.864000
     34 O3D          4.8220    22.2840    19.9100 os         1 A4P      -0.600400
     35 N1           6.0910    26.7000    15.6950 nc         1 A4P      -0.765300
     36 C12          7.0240    26.5780    14.7800 cd         1 A4P       0.717800
     37 N2           7.0980    27.4730    13.7940 nv         1 A4P      -1.091200
     38 N3           7.9230    25.5650    14.7830 ns         1 A4P      -0.455400
     39 C11          7.9890    24.5760    15.7740 c          1 A4P       0.600200
     40 O6           8.8710    23.7290    15.7120 o          1 A4P      -0.551000
     41 N5           6.9840    23.8690    17.8650 nf         1 A4P      -0.544300
     42 C6           6.0050    23.9040    18.6740 c2         1 A4P       0.435300
     43 C6A          6.0070    23.0570    19.9070 c3         1 A4P       0.184300
     44 C7           4.7660    24.7330    18.4240 c6         1 A4P       0.109500
     45 N8           5.1200    25.8700    17.6030 nu         1 A4P      -0.793200
     46 C9           6.0610    25.7560    16.6530 cc         1 A4P       0.387600
     47 C10          6.9700    24.7020    16.7560 cd         1 A4P      -0.139600
     48 H8R         -1.4250    19.4130    22.8570 h5         1 A4P       0.029800
     49 H6R1         2.4980    19.3240    18.1150 hn         1 A4P       0.524500
     50 H6R2         1.9430    20.2910    19.4180 hn         1 A4P       0.524500
     51 H1R         -2.3440    17.2560    23.4040 h2         1 A4P       0.048700
     52 H2R          1.0520    15.1860    18.7470 h5         1 A4P      -0.008900
     53 H5'1         1.8110    14.3700    24.7510 h1         1 A4P       0.022700
     54 H5'2         1.7390    16.0360    25.3210 h1         1 A4P       0.022700
     55 H4          -0.4450    14.9480    25.2600 h1         1 A4P       0.008700
     56 H3           0.1780    14.5170    22.3300 h1         1 A4P       0.139700
     57 HO'3        -0.7820    12.6170    22.8280 ho         1 A4P       0.487000
     58 H2          -2.0230    15.1530    21.6490 h1         1 A4P       0.069700
     59 HO'2        -2.7750    13.9920    23.7540 ho         1 A4P       0.500000
     60 HN21         7.8120    27.4410    13.0870 hn         1 A4P       0.487500
     61 HN22         6.4520    28.2430    13.7820 hn         1 A4P       0.487500
     62 H6A1         6.0700    23.7030    20.7910 h1         1 A4P       0.069200
     63 H6A2         6.8810    22.4030    19.9110 h1         1 A4P       0.069200
     64 H71          3.9980    24.1100    17.9430 h1         1 A4P       0.092700
     65 H72          4.3430    25.0810    19.3660 h1         1 A4P       0.092700
     66 HN8          4.4500    26.6170    17.5040 hn         1 A4P       0.476000
     67 C5           1.4780    15.3780    24.4830 c3         1 A4P       0.238600
     68 HN3          8.6200    25.5120    14.0520 hn         1 A4P       0.292500
@<TRIPOS>BOND
     1     1     2 1   
     2     1     8 1   
     3     1    11 1   
     4     2     3 2   
     5     2    48 1   
     6     3     4 1   
     7     4     5 ar  
     8     4    11 ar  
     9     5     6 1   
    10     5     7 ar  
    11     6    49 1   
    12     6    50 1   
    13     7     9 ar  
    14     8    14 1   
    15     8    17 1   
    16     8    51 1   
    17     9    10 ar  
    18     9    52 1   
    19    10    11 ar  
    20    12    19 1   
    21    12    67 1   
    22    13    14 1   
    23    13    15 1   
    24    13    55 1   
    25    13    67 1   
    26    15    16 1   
    27    15    17 1   
    28    15    56 1   
    29    16    57 1   
    30    17    18 1   
    31    17    58 1   
    32    18    59 1   
    33    19    20 1   
    34    19    21 1   
    35    19    22 1   
    36    22    23 1   
    37    23    24 1   
    38    23    25 1   
    39    23    26 1   
    40    26    27 1   
    41    27    28 1   
    42    27    29 1   
    43    27    30 1   
    44    30    31 1   
    45    31    32 1   
    46    31    33 1   
    47    31    34 1   
    48    34    43 1   
    49    35    36 2   
    50    35    46 1   
    51    36    37 1   
    52    36    38 1   
    53    37    60 1   
    54    37    61 1   
    55    38    39 1   
    56    38    68 1   
    57    39    40 2   
    58    39    47 1   
    59    41    42 2   
    60    41    47 1   
    61    42    43 1   
    62    42    44 1   
    63    43    62 1   
    64    43    63 1   
    65    44    45 1   
    66    44    64 1   
    67    44    65 1   
    68    45    46 1   
    69    45    66 1   
    70    46    47 2   
    71    53    67 1   
    72    54    67 1   
@<TRIPOS>SUBSTRUCTURE
     1 A4P         1 TEMP              0 ****  ****    0 ROOT
