@<TRIPOS>MOLECULE
A4P
   68    72     1     0     0
SMALL
No Charge or Current Charge


@<TRIPOS>ATOM
      1 N9R         -0.9080    17.9420    21.3740 na         1 A4P      -0.321300
      2 C8R         -0.8430    19.2420    20.8690 cc         1 A4P       0.379700
      3 N7R         -0.1440    19.3020    19.7250 nd         1 A4P      -0.453100
      4 C5R          0.2150    17.9700    19.5020 ca         1 A4P      -0.034600
      5 C6R          0.9760    17.4100    18.4530 ca         1 A4P       0.482900
      6 N6R          1.5910    18.1470    17.4930 nv         1 A4P      -1.039900
      7 N1R          1.1700    16.0850    18.3640 nb         1 A4P      -0.328000
      8 C1R         -1.4510    17.6300    22.6990 c5         1 A4P       0.339300
      9 C2R          0.6180    15.3390    19.3470 ca         1 A4P       0.191900
     10 N3R         -0.0920    15.7920    20.4060 nb         1 A4P      -0.299000
     11 C4R         -0.2710    17.1270    20.4720 ca         1 A4P       0.155500
     12 O5           2.1930    16.1450    24.4220 os         1 A4P      -0.583400
     13 C4          -0.1510    16.9220    24.5450 c5         1 A4P       0.177300
     14 O4          -0.4500    18.0300    23.6680 os         1 A4P      -0.415000
     15 C3          -0.4990    15.6510    23.7080 c5         1 A4P       0.092300
     16 O3          -0.7270    14.4680    24.5080 oh         1 A4P      -0.745000
     17 C2          -1.8200    16.1310    23.0360 c5         1 A4P       0.091300
     18 O2          -2.8960    15.9860    23.9790 oh         1 A4P      -0.753000
     19 PA           3.7680    16.2250    24.7600 p5         1 A4P       1.478800
     20 O1A          4.4730    14.9300    24.5250 o          1 A4P      -0.859000
     21 O2A          3.9620    16.6350    26.1840 o          1 A4P      -0.859000
     22 O3A          4.2660    17.3810    23.8120 os         1 A4P      -0.732800
     23 PB           3.9180    17.2790    22.2750 p5         1 A4P       1.544800
     24 O1B          2.6900    18.0760    21.9950 o          1 A4P      -0.886500
     25 O2B          3.8710    15.8750    21.7640 o          1 A4P      -0.886500
     26 O3B          5.2410    18.0030    21.8220 os         1 A4P      -0.719800
     27 PG           5.2790    18.5070    20.3280 p5         1 A4P       1.528800
     28 O1G          4.5130    17.6560    19.3730 o          1 A4P      -0.882000
     29 O2G          6.7230    18.5590    19.9450 o          1 A4P      -0.882000
     30 O3G          4.7020    19.9540    20.5820 os         1 A4P      -0.716800
     31 PD           4.2670    20.7930    19.3190 p5         1 A4P       1.491800
     32 O1D          3.9020    22.1760    19.7440 o          1 A4P      -0.864000
     33 O2D          3.1480    20.1890    18.5380 o          1 A4P      -0.864000
     34 O3D          5.6330    20.8300    18.4670 os         1 A4P      -0.600400
     35 N1           6.2850    27.2330    17.8320 nc         1 A4P      -0.765300
     36 C12          6.0590    27.6100    16.6130 cd         1 A4P       0.717800
     37 N2           5.9720    28.9140    16.4370 nv         1 A4P      -1.091200
     38 N3           5.9210    26.8360    15.5390 ns         1 A4P      -0.455400
     39 C11          5.9940    25.4870    15.5950 c          1 A4P       0.600200
     40 O6           5.8560    24.8050    14.5890 o          1 A4P      -0.551000
     41 N5           6.3750    23.5760    17.3000 nf         1 A4P      -0.544300
     42 C6           6.4780    23.1560    18.5560 c2         1 A4P       0.435300
     43 C6A          6.7330    21.6790    18.8760 c3         1 A4P       0.184300
     44 C7           6.5510    24.1530    19.7400 c6         1 A4P       0.109500
     45 N8           6.6130    25.5710    19.2780 nu         1 A4P      -0.793200
     46 C9           6.3810    25.8850    17.9810 cc         1 A4P       0.387600
     47 C10          6.2500    24.9400    16.9610 cd         1 A4P      -0.139600
     48 H8R         -1.2780    20.0860    21.3910 h5         1 A4P       0.029800
     49 H6R1         2.2630    17.6210    16.9500 hn         1 A4P       0.524500
     50 H6R2         2.0280    19.0050    17.8700 hn         1 A4P       0.524500
     51 H1R         -2.3420    18.2620    22.8040 h2         1 A4P       0.048700
     52 H2R          0.7670    14.2630    19.2840 h5         1 A4P      -0.008900
     53 H5'1         1.2670    16.7840    26.1740 h1         1 A4P       0.022700
     54 H5'2         1.6420    18.0800    25.0230 h1         1 A4P       0.022700
     55 H4          -0.8350    17.0080    25.4000 h1         1 A4P       0.008700
     56 H3           0.2800    15.4800    22.9490 h1         1 A4P       0.139700
     57 HO'3         0.1590    14.1490    24.8040 ho         1 A4P       0.487000
     58 H2          -2.0430    15.5580    22.1260 h1         1 A4P       0.069700
     59 HO'2        -2.5580    15.2630    24.5680 ho         1 A4P       0.500000
     60 HN21         6.2520    29.2720    15.5330 hn         1 A4P       0.487500
     61 HN22         6.2840    29.4530    17.2360 hn         1 A4P       0.487500
     62 H6A1         6.9340    21.5600    19.9490 h1         1 A4P       0.069200
     63 H6A2         7.6460    21.3750    18.3500 h1         1 A4P       0.069200
     64 H71          5.6730    23.9980    20.3830 h1         1 A4P       0.092700
     65 H72          7.4370    23.9120    20.3470 h1         1 A4P       0.092700
     66 HN8          6.4980    26.3490    19.9260 hn         1 A4P       0.476000
     67 C5           1.3000    17.0400    25.1070 c3         1 A4P       0.238600
     68 HN3          5.7310    27.2430    14.6380 hn         1 A4P       0.292500
@<TRIPOS>BOND
     1     1     2 1   
     2     1     8 1   
     3     1    11 1   
     4     2     3 2   
     5     2    48 1   
     6     3     4 1   
     7     4     5 ar  
     8     4    11 ar  
     9     5     6 1   
    10     5     7 ar  
    11     6    49 1   
    12     6    50 1   
    13     7     9 ar  
    14     8    14 1   
    15     8    17 1   
    16     8    51 1   
    17     9    10 ar  
    18     9    52 1   
    19    10    11 ar  
    20    12    19 1   
    21    12    67 1   
    22    13    14 1   
    23    13    15 1   
    24    13    55 1   
    25    13    67 1   
    26    15    16 1   
    27    15    17 1   
    28    15    56 1   
    29    16    57 1   
    30    17    18 1   
    31    17    58 1   
    32    18    59 1   
    33    19    20 1   
    34    19    21 1   
    35    19    22 1   
    36    22    23 1   
    37    23    24 1   
    38    23    25 1   
    39    23    26 1   
    40    26    27 1   
    41    27    28 1   
    42    27    29 1   
    43    27    30 1   
    44    30    31 1   
    45    31    32 1   
    46    31    33 1   
    47    31    34 1   
    48    34    43 1   
    49    35    36 2   
    50    35    46 1   
    51    36    37 1   
    52    36    38 1   
    53    37    60 1   
    54    37    61 1   
    55    38    39 1   
    56    38    68 1   
    57    39    40 2   
    58    39    47 1   
    59    41    42 2   
    60    41    47 1   
    61    42    43 1   
    62    42    44 1   
    63    43    62 1   
    64    43    63 1   
    65    44    45 1   
    66    44    64 1   
    67    44    65 1   
    68    45    46 1   
    69    45    66 1   
    70    46    47 2   
    71    53    67 1   
    72    54    67 1   
@<TRIPOS>SUBSTRUCTURE
     1 A4P         1 TEMP              0 ****  ****    0 ROOT
