@<TRIPOS>MOLECULE
A4Q
   33    34     1     0     0
SMALL
No Charge or Current Charge


@<TRIPOS>ATOM
      1 C7           1.3580     0.5500     0.1810 cp         1 A4Q      -0.038000
      2 C8          -0.1200     0.4220     0.0340 cp         1 A4Q      -0.027000
      3 C12         -4.4470     0.0970    -0.4410 c3         1 A4Q       0.197100
      4 C11         -2.9380     0.2170    -0.2730 ca         1 A4Q      -0.078300
      5 C10         -2.2160     1.2000    -0.9760 ca         1 A4Q      -0.114000
      6 C9          -0.8230     1.3020    -0.8210 ca         1 A4Q      -0.096000
      7 N           -5.1660     0.7070     0.6940 n8         1 A4Q      -1.000200
      8 C2           2.2620    -0.3040    -0.5120 ca         1 A4Q      -0.048300
      9 C3           3.6510    -0.1330    -0.3410 ca         1 A4Q      -0.113000
     10 C4           4.1520     0.8700     0.5050 ca         1 A4Q      -0.103000
     11 C5           3.2670     1.7180     1.1870 ca         1 A4Q      -0.116000
     12 C6           1.8830     1.5590     1.0230 ca         1 A4Q      -0.092000
     13 C1           1.7760    -1.3990    -1.4600 c3         1 A4Q      -0.035100
     14 C            1.5280    -0.8700    -2.8850 c3         1 A4Q      -0.086100
     15 Cl          -0.0550    -1.6730     1.8530 cl         1 A4Q      -0.202000
     16 C14         -0.8570    -0.5580     0.7460 ca         1 A4Q       0.126000
     17 C13         -2.2500    -0.6590     0.5890 ca         1 A4Q      -0.085000
     18 H1          -4.7610     0.5960    -1.3690 h1         1 A4Q       0.037200
     19 H2          -4.7290    -0.9630    -0.5120 h1         1 A4Q       0.037200
     20 H3          -2.7330     1.8860    -1.6430 ha         1 A4Q       0.113000
     21 H4          -0.2770     2.0650    -1.3700 ha         1 A4Q       0.120000
     22 H5          -4.9460     1.7090     0.7190 hn         1 A4Q       0.399000
     23 H6          -6.1740     0.6840     0.4990 hn         1 A4Q       0.399000
     24 H8           4.3480    -0.7790    -0.8700 ha         1 A4Q       0.111000
     25 H9           5.2260     0.9910     0.6280 ha         1 A4Q       0.112000
     26 H10          3.6530     2.4970     1.8400 ha         1 A4Q       0.113000
     27 H11          1.2020     2.2210     1.5540 ha         1 A4Q       0.115000
     28 H12          2.5120    -2.2100    -1.5110 hc         1 A4Q       0.050700
     29 H13          0.8550    -1.8610    -1.0870 hc         1 A4Q       0.050700
     30 H14          0.7570    -0.0910    -2.8830 hc         1 A4Q       0.034033
     31 H15          2.4480    -0.4440    -3.3040 hc         1 A4Q       0.034033
     32 H16          1.1940    -1.6820    -3.5430 hc         1 A4Q       0.034033
     33 H17         -2.7980    -1.4160     1.1440 ha         1 A4Q       0.149000
@<TRIPOS>BOND
     1     1     2 1   
     2     1     8 ar  
     3     1    12 ar  
     4     2     6 ar  
     5     2    16 ar  
     6     3     4 1   
     7     3     7 1   
     8     3    18 1   
     9     3    19 1   
    10     4     5 ar  
    11     4    17 ar  
    12     5     6 ar  
    13     5    20 1   
    14     6    21 1   
    15     7    22 1   
    16     7    23 1   
    17     8     9 ar  
    18     8    13 1   
    19     9    10 ar  
    20     9    24 1   
    21    10    11 ar  
    22    10    25 1   
    23    11    12 ar  
    24    11    26 1   
    25    12    27 1   
    26    13    14 1   
    27    13    28 1   
    28    13    29 1   
    29    14    30 1   
    30    14    31 1   
    31    14    32 1   
    32    15    16 1   
    33    16    17 ar  
    34    17    33 1   
@<TRIPOS>SUBSTRUCTURE
     1 A4Q         1 TEMP              0 ****  ****    0 ROOT
