@<TRIPOS>MOLECULE
A4Q
   33    34     1     0     0
SMALL
abcg2


@<TRIPOS>ATOM
      1 C7           1.3790     0.6020     0.1320 cp         1 A4Q      -0.038000
      2 C8          -0.0940     0.5310    -0.0240 cp         1 A4Q      -0.027000
      3 C12         -4.3980     0.4070    -0.5130 c3         1 A4Q       0.197100
      4 C11         -2.9040     0.4610    -0.3140 ca         1 A4Q      -0.078300
      5 C10         -2.1310     1.3590    -1.0440 ca         1 A4Q      -0.114000
      6 C9          -0.7540     1.3880    -0.9020 ca         1 A4Q      -0.096000
      7 N           -5.0940    -0.1320     0.6390 n8         1 A4Q      -1.000200
      8 C2           2.2240    -0.3480    -0.4570 ca         1 A4Q      -0.048300
      9 C3           3.5990    -0.2130    -0.2790 ca         1 A4Q      -0.113000
     10 C4           4.1360     0.8310     0.4600 ca         1 A4Q      -0.103000
     11 C5           3.2950     1.7710     1.0360 ca         1 A4Q      -0.116000
     12 C6           1.9220     1.6510     0.8690 ca         1 A4Q      -0.092000
     13 C1           1.6920    -1.4600    -1.3190 c3         1 A4Q      -0.035100
     14 C            1.4730    -1.0130    -2.7640 c3         1 A4Q      -0.086100
     15 CL          -0.1340    -1.4190     1.8520 cl         1 A4Q      -0.202000
     16 C14         -0.8860    -0.3460     0.7120 ca         1 A4Q       0.126000
     17 C13         -2.2640    -0.3940     0.5760 ca         1 A4Q      -0.085000
     18 H1          -4.7420     1.4040    -0.8180 h1         1 A4Q       0.037200
     19 H2          -4.6030    -0.2500    -1.3640 h1         1 A4Q       0.037200
     20 H3          -2.6100     2.0470    -1.7320 ha         1 A4Q       0.113000
     21 H4          -0.1680     2.0930    -1.4800 ha         1 A4Q       0.120000
     22 H5          -5.0790     0.5420     1.3940 hn         1 A4Q       0.399000
     23 H6          -6.0680    -0.2700     0.4060 hn         1 A4Q       0.399000
     24 H8           4.2610    -0.9430    -0.7310 ha         1 A4Q       0.111000
     25 H9           5.2090     0.9090     0.5850 ha         1 A4Q       0.112000
     26 H10          3.7000     2.5920     1.6130 ha         1 A4Q       0.113000
     27 H11          1.2600     2.3780     1.3230 ha         1 A4Q       0.115000
     28 H12          2.4000    -2.2920    -1.3050 hc         1 A4Q       0.050700
     29 H13          0.7560    -1.8490    -0.9160 hc         1 A4Q       0.050700
     30 H14          0.7530    -0.1950    -2.8220 hc         1 A4Q       0.034033
     31 H15          2.4050    -0.6690    -3.2150 hc         1 A4Q       0.034033
     32 H16          1.0920    -1.8360    -3.3700 hc         1 A4Q       0.034033
     33 H17         -2.8470    -1.0880     1.1650 ha         1 A4Q       0.149000
@<TRIPOS>BOND
     1     1     2 1   
     2     1     8 ar  
     3     1    12 ar  
     4     2     6 ar  
     5     2    16 ar  
     6     3     4 1   
     7     3     7 1   
     8     3    18 1   
     9     3    19 1   
    10     4     5 ar  
    11     4    17 ar  
    12     5     6 ar  
    13     5    20 1   
    14     6    21 1   
    15     7    22 1   
    16     7    23 1   
    17     8     9 ar  
    18     8    13 1   
    19     9    10 ar  
    20     9    24 1   
    21    10    11 ar  
    22    10    25 1   
    23    11    12 ar  
    24    11    26 1   
    25    12    27 1   
    26    13    14 1   
    27    13    28 1   
    28    13    29 1   
    29    14    30 1   
    30    14    31 1   
    31    14    32 1   
    32    15    16 1   
    33    16    17 ar  
    34    17    33 1   
@<TRIPOS>SUBSTRUCTURE
     1 A4Q         1 TEMP              0 ****  ****    0 ROOT
