@<TRIPOS>MOLECULE
A4R
   72    76     1     0     0
SMALL
No Charge or Current Charge


@<TRIPOS>ATOM
      1 C1          -6.0680    -2.7270     1.1370 c3         1 A4R      -0.122400
      2 C2          -6.1140    -1.3290     0.5870 cc         1 A4R       0.380800
      3 N3          -7.2170    -0.6210     0.4310 nd         1 A4R      -0.362000
      4 N4          -6.8680     0.5950    -0.0910 nd         1 A4R      -0.367000
      5 C5          -5.5530     0.6240    -0.2520 cc         1 A4R       0.392800
      6 C6          -4.8070     1.8240    -0.8130 c3         1 A4R      -0.087000
      7 C7          -5.2310     2.1330    -2.2670 c3         1 A4R      -0.084100
      8 C8          -4.9550     3.0660     0.0960 c3         1 A4R      -0.084100
      9 N9          -5.0270    -0.5900     0.1710 na         1 A4R      -0.369000
     10 C10         -3.6100    -1.0500     0.1930 c6         1 A4R       0.091300
     11 C11         -2.9890    -1.1650    -1.2210 c6         1 A4R      -0.077900
     12 C12         -1.4600    -1.4400    -1.1560 c5         1 A4R       0.160000
     13 C13         -1.0470    -2.6770    -0.2960 c5         1 A4R      -0.111900
     14 C14         -0.8840    -2.0990     1.1530 c5         1 A4R      -0.111900
     15 C15         -1.2150    -0.5810     0.9970 c5         1 A4R       0.160000
     16 C16         -2.7190    -0.2190     1.1500 c6         1 A4R      -0.077900
     17 N17         -0.8140    -0.3210    -0.4170 n3         1 A4R      -0.696600
     18 C18          0.6450    -0.1790    -0.6690 c3         1 A4R       0.158800
     19 C19          1.2740     1.0830    -0.0400 c3         1 A4R      -0.089400
     20 C20          2.7600     1.2910    -0.4130 c3         1 A4R       0.190000
     21 N21          3.5950     0.2010     0.0840 ns         1 A4R      -0.521900
     22 C22          3.9320    -0.9220    -0.6360 c          1 A4R       0.608100
     23 O23          3.6150    -1.0940    -1.8050 o          1 A4R      -0.586100
     24 C24          4.7420    -1.8900     0.2720 c5         1 A4R      -0.152700
     25 C25          3.9870    -3.2620     0.3880 c5         1 A4R      -0.069900
     26 C26          5.0950    -4.3130     0.1190 c5         1 A4R      -0.080400
     27 C27          5.8760    -3.6250    -1.0240 c5         1 A4R      -0.080400
     28 C28          6.1190    -2.2310    -0.3940 c5         1 A4R      -0.069900
     29 C29          3.2930     2.6100     0.0760 cc         1 A4R      -0.222300
     30 C30          3.8440     3.6190    -0.6740 cd         1 A4R      -0.120000
     31 C31          4.2530     4.7430     0.0930 cd         1 A4R      -0.129000
     32 C32          4.0180     4.6030     1.4370 cc         1 A4R      -0.236000
     33 S33          3.2720     3.0470     1.7870 ss         1 A4R       0.187000
     34 H1          -5.6400    -3.4190     0.4020 hc         1 A4R       0.055367
     35 H2          -5.4560    -2.7660     2.0450 hc         1 A4R       0.055367
     36 H3          -7.0720    -3.0840     1.3920 hc         1 A4R       0.055367
     37 H4          -3.7370     1.6090    -0.8530 hc         1 A4R       0.057700
     38 H5          -4.6340     2.9560    -2.6790 hc         1 A4R       0.042367
     39 H6          -5.0840     1.2540    -2.9060 hc         1 A4R       0.042367
     40 H7          -6.2890     2.4190    -2.3160 hc         1 A4R       0.042367
     41 H8          -4.6140     2.8410     1.1140 hc         1 A4R       0.042367
     42 H9          -4.3550     3.9010    -0.2860 hc         1 A4R       0.042367
     43 H10         -6.0010     3.3920     0.1490 hc         1 A4R       0.042367
     44 H11         -3.6070    -2.0700     0.6000 h1         1 A4R       0.060700
     45 H12         -3.4830    -1.9770    -1.7700 hc         1 A4R       0.061950
     46 H13         -3.1550    -0.2590    -1.8130 hc         1 A4R       0.061950
     47 H14         -1.0890    -1.5270    -2.1880 h1         1 A4R       0.069700
     48 H15         -1.7910    -3.4800    -0.3450 hc         1 A4R       0.050200
     49 H16         -0.1030    -3.1040    -0.6520 hc         1 A4R       0.050200
     50 H17         -1.5410    -2.5920     1.8780 hc         1 A4R       0.050200
     51 H18          0.1420    -2.2410     1.5140 hc         1 A4R       0.050200
     52 H19         -0.6550     0.0260     1.7210 h1         1 A4R       0.069700
     53 H20         -2.8360     0.8570     0.9840 hc         1 A4R       0.061950
     54 H21         -3.0340    -0.3970     2.1870 hc         1 A4R       0.061950
     55 H23          1.1860    -1.0620    -0.3040 h1         1 A4R       0.038700
     56 H24          0.8140    -0.1290    -1.7530 h1         1 A4R       0.038700
     57 H25          0.7030     1.9580    -0.3710 hc         1 A4R       0.059200
     58 H26          1.1850     1.0360     1.0500 hc         1 A4R       0.059200
     59 H27          2.8270     1.3020    -1.5110 h1         1 A4R       0.083700
     60 H28          3.9250     0.2490     1.0380 hn         1 A4R       0.311500
     61 H29          4.8960    -1.4470     1.2630 hc         1 A4R       0.063700
     62 H30          3.5220    -3.3970     1.3720 hc         1 A4R       0.051450
     63 H31          3.1830    -3.3540    -0.3530 hc         1 A4R       0.051450
     64 H32          5.7240    -4.4780     1.0020 hc         1 A4R       0.044200
     65 H33          4.6840    -5.2850    -0.1790 hc         1 A4R       0.044200
     66 H34          6.8110    -4.1430    -1.2640 hc         1 A4R       0.044200
     67 H35          5.2850    -3.5630    -1.9460 hc         1 A4R       0.044200
     68 H36          6.4360    -1.4870    -1.1330 hc         1 A4R       0.051450
     69 H37          6.9130    -2.2820     0.3620 hc         1 A4R       0.051450
     70 H38          3.9590     3.5660    -1.7530 ha         1 A4R       0.135000
     71 H39          4.7080     5.6280    -0.3430 ha         1 A4R       0.135000
     72 H40          4.2250     5.2920     2.2450 h4         1 A4R       0.150000
@<TRIPOS>BOND
     1     1     2 1   
     2     1    34 1   
     3     1    35 1   
     4     1    36 1   
     5     2     3 2   
     6     2     9 1   
     7     3     4 1   
     8     4     5 2   
     9     5     6 1   
    10     5     9 1   
    11     6     7 1   
    12     6     8 1   
    13     6    37 1   
    14     7    38 1   
    15     7    39 1   
    16     7    40 1   
    17     8    41 1   
    18     8    42 1   
    19     8    43 1   
    20     9    10 1   
    21    10    11 1   
    22    10    16 1   
    23    10    44 1   
    24    11    12 1   
    25    11    45 1   
    26    11    46 1   
    27    12    13 1   
    28    12    17 1   
    29    12    47 1   
    30    13    14 1   
    31    13    48 1   
    32    13    49 1   
    33    14    15 1   
    34    14    50 1   
    35    14    51 1   
    36    15    16 1   
    37    15    17 1   
    38    15    52 1   
    39    16    53 1   
    40    16    54 1   
    41    17    18 1   
    42    18    19 1   
    43    18    55 1   
    44    18    56 1   
    45    19    20 1   
    46    19    57 1   
    47    19    58 1   
    48    20    21 1   
    49    20    29 1   
    50    20    59 1   
    51    21    22 1   
    52    21    60 1   
    53    22    23 2   
    54    22    24 1   
    55    24    25 1   
    56    24    28 1   
    57    24    61 1   
    58    25    26 1   
    59    25    62 1   
    60    25    63 1   
    61    26    27 1   
    62    26    64 1   
    63    26    65 1   
    64    27    28 1   
    65    27    66 1   
    66    27    67 1   
    67    28    68 1   
    68    28    69 1   
    69    29    30 2   
    70    29    33 1   
    71    30    31 1   
    72    30    70 1   
    73    31    32 2   
    74    31    71 1   
    75    32    33 1   
    76    32    72 1   
@<TRIPOS>SUBSTRUCTURE
     1 A4R         1 TEMP              0 ****  ****    0 ROOT
