@<TRIPOS>MOLECULE
A4R
   72    76     1     0     0
SMALL
bcc


@<TRIPOS>ATOM
      1 C1          -5.7880    -2.8290     1.0610 c3         1 A4R      -0.122400
      2 C2          -5.9010    -1.3820     0.7550 cc         1 A4R       0.380800
      3 N3          -6.9780    -0.6630     0.8850 nd         1 A4R      -0.362000
      4 N4          -6.6770     0.6060     0.5120 nd         1 A4R      -0.367000
      5 C5          -5.4230     0.6420     0.1610 cc         1 A4R       0.392800
      6 C6          -4.7280     1.8830    -0.3110 c3         1 A4R      -0.087000
      7 C7          -5.3730     2.4020    -1.5960 c3         1 A4R      -0.084100
      8 C8          -4.7370     2.9490     0.7850 c3         1 A4R      -0.084100
      9 N9          -4.8820    -0.6030     0.2960 na         1 A4R      -0.339700
     10 C10         -3.5210    -1.0550     0.0360 c6         1 A4R       0.062000
     11 C11         -3.1330    -0.9290    -1.4380 c6         1 A4R      -0.077900
     12 C12         -1.6460    -1.2250    -1.6140 c5         1 A4R       0.160000
     13 C13         -1.2490    -2.6060    -1.0430 c5         1 A4R      -0.111900
     14 C14         -0.8840    -2.3010     0.4230 c5         1 A4R      -0.111900
     15 C15         -1.0870    -0.7720     0.5400 c5         1 A4R       0.160000
     16 C16         -2.5040    -0.4110     0.9790 c6         1 A4R      -0.077900
     17 N17         -0.9000    -0.2510    -0.8170 n3         1 A4R      -0.696600
     18 C18          0.4970    -0.1520    -1.2050 c3         1 A4R       0.158800
     19 C19          1.1630     1.0700    -0.5810 c3         1 A4R      -0.089400
     20 C20          2.6740     1.1020    -0.8240 c3         1 A4R       0.190000
     21 N21          3.2870    -0.0080    -0.1260 ns         1 A4R      -0.588900
     22 C22          4.4760    -0.5480    -0.4670 c          1 A4R       0.675100
     23 O23          5.1340    -0.1250    -1.4030 o          1 A4R      -0.586100
     24 C24          4.8970    -1.7120     0.4070 c5         1 A4R      -0.152700
     25 C25          3.8840    -2.8680     0.4250 c5         1 A4R      -0.069900
     26 C26          4.6910    -4.0040     1.0410 c5         1 A4R      -0.080400
     27 C27          6.0860    -3.8600     0.4140 c5         1 A4R      -0.080400
     28 C28          6.2180    -2.3770     0.0010 c5         1 A4R      -0.069900
     29 C29          3.2670     2.4160    -0.3980 cc         1 A4R      -0.077400
     30 C30          3.3620     3.5750    -1.1080 cd         1 A4R      -0.138000
     31 C31          3.9070     4.6470    -0.3470 cd         1 A4R      -0.147000
     32 C32          4.2150     4.2810     0.9260 cc         1 A4R      -0.109100
     33 S33          3.8480     2.6290     1.2090 ss         1 A4R      -0.102800
     34 H1          -5.5250    -3.4140     0.1790 hc         1 A4R       0.055367
     35 H2          -5.0370    -3.0240     1.8280 hc         1 A4R       0.055367
     36 H3          -6.7460    -3.1900     1.4280 hc         1 A4R       0.055367
     37 H4          -3.6870     1.6470    -0.5350 hc         1 A4R       0.057700
     38 H5          -4.8470     3.2900    -1.9460 hc         1 A4R       0.042367
     39 H6          -5.3380     1.6550    -2.3900 hc         1 A4R       0.042367
     40 H7          -6.4170     2.6680    -1.4300 hc         1 A4R       0.042367
     41 H8          -4.2430     2.5970     1.6910 hc         1 A4R       0.042367
     42 H9          -4.2120     3.8430     0.4450 hc         1 A4R       0.042367
     43 H10         -5.7560     3.2340     1.0460 hc         1 A4R       0.042367
     44 H11         -3.5340    -2.1220     0.2660 h1         1 A4R       0.060700
     45 H12         -3.7350    -1.6220    -2.0310 hc         1 A4R       0.061950
     46 H13         -3.3280     0.0740    -1.8200 hc         1 A4R       0.061950
     47 H14         -1.3870    -1.1250    -2.6700 h1         1 A4R       0.069700
     48 H15         -2.0530    -3.3390    -1.1370 hc         1 A4R       0.050200
     49 H16         -0.3930    -3.0080    -1.5850 hc         1 A4R       0.050200
     50 H17         -1.5000    -2.8500     1.1370 hc         1 A4R       0.050200
     51 H18          0.1500    -2.5740     0.6400 hc         1 A4R       0.050200
     52 H19         -0.3810    -0.3150     1.2350 h1         1 A4R       0.069700
     53 H20         -2.5950     0.6770     0.9830 hc         1 A4R       0.061950
     54 H21         -2.6900    -0.7550     1.9990 hc         1 A4R       0.061950
     55 H23          1.0690    -1.0610    -0.9690 h1         1 A4R       0.038700
     56 H24          0.5410    -0.0470    -2.2920 h1         1 A4R       0.038700
     57 H25          0.7190     1.9740    -1.0010 hc         1 A4R       0.059200
     58 H26          0.9800     1.1120     0.4980 hc         1 A4R       0.059200
     59 H27          2.8590     0.9870    -1.8950 h1         1 A4R       0.083700
     60 H28          2.7960    -0.3850     0.6690 hn         1 A4R       0.311500
     61 H29          4.9860    -1.3320     1.4320 hc         1 A4R       0.063700
     62 H30          2.9770    -2.6390     0.9880 hc         1 A4R       0.051450
     63 H31          3.5840    -3.1190    -0.5970 hc         1 A4R       0.051450
     64 H32          4.7430    -3.8650     2.1230 hc         1 A4R       0.044200
     65 H33          4.2470    -4.9850     0.8620 hc         1 A4R       0.044200
     66 H34          6.8720    -4.1690     1.1030 hc         1 A4R       0.044200
     67 H35          6.1700    -4.5010    -0.4650 hc         1 A4R       0.044200
     68 H36          6.3680    -2.2910    -1.0750 hc         1 A4R       0.051450
     69 H37          7.0690    -1.8890     0.4760 hc         1 A4R       0.051450
     70 H38          3.0550     3.6640    -2.1420 ha         1 A4R       0.153000
     71 H39          4.0690     5.6430    -0.7360 ha         1 A4R       0.153000
     72 H40          4.6500     4.8850     1.7080 h4         1 A4R       0.168000
@<TRIPOS>BOND
     1     1     2 1   
     2     1    34 1   
     3     1    35 1   
     4     1    36 1   
     5     2     3 2   
     6     2     9 1   
     7     3     4 1   
     8     4     5 2   
     9     5     6 1   
    10     5     9 1   
    11     6     7 1   
    12     6     8 1   
    13     6    37 1   
    14     7    38 1   
    15     7    39 1   
    16     7    40 1   
    17     8    41 1   
    18     8    42 1   
    19     8    43 1   
    20     9    10 1   
    21    10    11 1   
    22    10    16 1   
    23    10    44 1   
    24    11    12 1   
    25    11    45 1   
    26    11    46 1   
    27    12    13 1   
    28    12    17 1   
    29    12    47 1   
    30    13    14 1   
    31    13    48 1   
    32    13    49 1   
    33    14    15 1   
    34    14    50 1   
    35    14    51 1   
    36    15    16 1   
    37    15    17 1   
    38    15    52 1   
    39    16    53 1   
    40    16    54 1   
    41    17    18 1   
    42    18    19 1   
    43    18    55 1   
    44    18    56 1   
    45    19    20 1   
    46    19    57 1   
    47    19    58 1   
    48    20    21 1   
    49    20    29 1   
    50    20    59 1   
    51    21    22 1   
    52    21    60 1   
    53    22    23 2   
    54    22    24 1   
    55    24    25 1   
    56    24    28 1   
    57    24    61 1   
    58    25    26 1   
    59    25    62 1   
    60    25    63 1   
    61    26    27 1   
    62    26    64 1   
    63    26    65 1   
    64    27    28 1   
    65    27    66 1   
    66    27    67 1   
    67    28    68 1   
    68    28    69 1   
    69    29    30 2   
    70    29    33 1   
    71    30    31 1   
    72    30    70 1   
    73    31    32 2   
    74    31    71 1   
    75    32    33 1   
    76    32    72 1   
@<TRIPOS>SUBSTRUCTURE
     1 A4R         1 TEMP              0 ****  ****    0 ROOT
