@<TRIPOS>MOLECULE
A4S
   48    48     1     0     0
SMALL
bcc


@<TRIPOS>ATOM
      1 C01         -7.5410    -1.5590    -1.3740 ca         1 A4S      -0.213500
      2 C02         -8.8530    -1.9410    -1.5810 ca         1 A4S      -0.097500
      3 C03         -9.8230    -1.7240    -0.6070 ca         1 A4S      -0.199000
      4 C04         -9.4460    -1.1070     0.5770 ca         1 A4S      -0.097500
      5 C05         -8.1330    -0.7120     0.7970 ca         1 A4S      -0.213500
      6 C06         -7.1500    -0.9390    -0.1750 ca         1 A4S       0.190600
      7 N07         -5.8280    -0.6060     0.0120 nu         1 A4S      -0.739600
      8 C08         -5.4070     0.2680     1.0860 c3         1 A4S       0.245000
      9 C09         -3.9060     0.3670     1.1290 c2         1 A4S      -0.170400
     10 C10         -3.3210     1.5540     0.9500 c2         1 A4S      -0.123200
     11 C11         -1.8600     1.8710     0.9620 c3         1 A4S      -0.056200
     12 C12         -1.3520     2.2500    -0.4390 c3         1 A4S      -0.006200
     13 C13          0.1080     2.6240    -0.4430 c2         1 A4S      -0.242400
     14 C14          1.0080     1.7780    -0.9490 c2         1 A4S      -0.049200
     15 C15          2.4930     1.9330    -1.0120 c3         1 A4S       0.220600
     16 O16          3.0720     0.8230    -0.3550 os         1 A4S      -0.539200
     17 P17          4.7190     0.6200    -0.4930 p5         1 A4S       1.452800
     18 O18          5.3810     1.8130     0.1420 o          1 A4S      -0.885500
     19 O19          4.7530    -0.6650     0.4640 os         1 A4S      -0.705800
     20 O20          5.0350     0.3020    -1.9270 o          1 A4S      -0.885500
     21 P21          6.0280    -1.8310     0.5170 p5         1 A4S       1.350900
     22 O22          5.6270    -2.8700    -0.5180 o          1 A4S      -0.941167
     23 O23          7.2820    -1.0350     0.1900 o          1 A4S      -0.941167
     24 O24          5.9240    -2.3050     1.9600 o          1 A4S      -0.941167
     25 C25          0.4290     3.9590     0.1630 c3         1 A4S      -0.019900
     26 C26         -3.1860    -0.9230     1.3830 c3         1 A4S      -0.046900
     27 H1          -6.7980    -1.7420    -2.1430 ha         1 A4S       0.129500
     28 H2          -9.1220    -2.4170    -2.5170 ha         1 A4S       0.112000
     29 H3         -10.8480    -2.0250    -0.7720 ha         1 A4S       0.113000
     30 H4         -10.1840    -0.9200     1.3470 ha         1 A4S       0.112000
     31 H5          -7.8820    -0.2220     1.7290 ha         1 A4S       0.129500
     32 H6          -5.3090    -0.4800    -0.8430 hn         1 A4S       0.419800
     33 H7          -5.8490     1.2700     1.0020 h1         1 A4S       0.030200
     34 H8          -5.7570    -0.1540     2.0340 h1         1 A4S       0.030200
     35 H10         -3.9690     2.4070     0.7560 ha         1 A4S       0.092000
     36 H12         -1.6930     2.7060     1.6490 hc         1 A4S       0.061700
     37 H13         -1.2670     1.0360     1.3390 hc         1 A4S       0.061700
     38 H14         -1.5200     1.4040    -1.1090 hc         1 A4S       0.017200
     39 H15         -1.9530     3.0810    -0.8230 hc         1 A4S       0.017200
     40 H17          0.6390     0.8460    -1.3740 ha         1 A4S       0.112000
     41 H19          2.8070     1.9660    -2.0640 h1         1 A4S       0.011200
     42 H20          2.8220     2.8730    -0.5580 h1         1 A4S       0.011200
     43 H24          0.0950     4.0150     1.2010 hc         1 A4S       0.017700
     44 H25          1.4900     4.1970     0.1490 hc         1 A4S       0.017700
     45 H26         -0.0950     4.7540    -0.3730 hc         1 A4S       0.017700
     46 H27         -3.3400    -1.6270     0.5620 hc         1 A4S       0.047033
     47 H28         -2.1120    -0.7960     1.5070 hc         1 A4S       0.047033
     48 H29         -3.5700    -1.4080     2.2840 hc         1 A4S       0.047033
@<TRIPOS>BOND
     1     1     2 ar  
     2     1     6 ar  
     3     1    27 1   
     4     2     3 ar  
     5     2    28 1   
     6     3     4 ar  
     7     3    29 1   
     8     4     5 ar  
     9     4    30 1   
    10     5     6 ar  
    11     5    31 1   
    12     6     7 1   
    13     7     8 1   
    14     7    32 1   
    15     8     9 1   
    16     8    33 1   
    17     8    34 1   
    18     9    10 2   
    19     9    26 1   
    20    10    11 1   
    21    10    35 1   
    22    11    12 1   
    23    11    36 1   
    24    11    37 1   
    25    12    13 1   
    26    12    38 1   
    27    12    39 1   
    28    13    14 2   
    29    13    25 1   
    30    14    15 1   
    31    14    40 1   
    32    15    16 1   
    33    15    41 1   
    34    15    42 1   
    35    16    17 1   
    36    17    18 1   
    37    17    19 1   
    38    17    20 1   
    39    19    21 1   
    40    21    22 1   
    41    21    23 1   
    42    21    24 1   
    43    25    43 1   
    44    25    44 1   
    45    25    45 1   
    46    26    46 1   
    47    26    47 1   
    48    26    48 1   
@<TRIPOS>SUBSTRUCTURE
     1 A4S         1 TEMP              0 ****  ****    0 ROOT
