@<TRIPOS>MOLECULE
A4S
   48    48     1     0     0
SMALL
No Charge or Current Charge


@<TRIPOS>ATOM
      1 C01         -7.6690    -0.3710    -1.5200 ca         1 A4S      -0.195500
      2 C02         -9.0070    -0.5650    -1.9040 ca         1 A4S      -0.079500
      3 C03         -9.9660    -0.9190    -0.9410 ca         1 A4S      -0.181000
      4 C04         -9.5890    -1.0800     0.4020 ca         1 A4S      -0.079500
      5 C05         -8.2490    -0.8840     0.7820 ca         1 A4S      -0.195500
      6 C06         -7.2840    -0.5280    -0.1780 ca         1 A4S       0.329000
      7 N07         -5.9490    -0.3280     0.1670 nu         1 A4S      -0.933200
      8 C08         -5.3730    -0.2760     1.5110 c3         1 A4S       0.245000
      9 C09         -3.8910     0.0240     1.3920 c2         1 A4S      -0.170400
     10 C10         -3.4280     1.2720     1.1820 c2         1 A4S      -0.173200
     11 C11         -1.9800     1.7180     1.0690 c3         1 A4S      -0.056200
     12 C12         -1.4560     1.6430    -0.3810 c3         1 A4S      -0.006200
     13 C13          0.0160     2.0120    -0.5070 c2         1 A4S      -0.242400
     14 C14          0.9770     1.0840    -0.6880 c2         1 A4S      -0.099200
     15 C15          2.4650     1.3350    -0.8450 c3         1 A4S       0.243800
     16 O16          3.1170     0.0770    -1.0290 os         1 A4S      -0.562400
     17 P17          4.7270     0.0400    -1.1260 p5         1 A4S       1.452800
     18 O18          5.2140     1.1760    -1.9710 o          1 A4S      -0.885500
     19 O19          5.0120     0.2270     0.4220 os         1 A4S      -0.705800
     20 O20          5.1330    -1.2910    -1.6770 o          1 A4S      -0.885500
     21 P21          6.4340    -0.1570     0.9860 p5         1 A4S       1.350900
     22 O22          6.4930    -1.6120     1.2970 o          1 A4S      -0.941167
     23 O23          7.5450     0.2310     0.0740 o          1 A4S      -0.941167
     24 O24          6.6120     0.5910     2.2610 o          1 A4S      -0.941167
     25 C25          0.2720     3.5120    -0.4350 c3         1 A4S      -0.019900
     26 C26         -3.0260    -1.2230     1.5270 c3         1 A4S      -0.046900
     27 H1          -6.9310    -0.0970    -2.2690 ha         1 A4S       0.111500
     28 H2          -9.2990    -0.4410    -2.9450 ha         1 A4S       0.094000
     29 H3         -11.0020    -1.0700    -1.2360 ha         1 A4S       0.095000
     30 H4         -10.3320    -1.3550     1.1480 ha         1 A4S       0.094000
     31 H5          -7.9700    -1.0130     1.8230 ha         1 A4S       0.111500
     32 H6          -5.3250    -0.0700    -0.5950 hn         1 A4S       0.475000
     33 H7          -5.8640     0.5110     2.1000 h1         1 A4S       0.030200
     34 H8          -5.5350    -1.2320     2.0290 h1         1 A4S       0.030200
     35 H10         -4.1390     2.0960     1.0930 ha         1 A4S       0.142000
     36 H12         -1.8870     2.7450     1.4390 hc         1 A4S       0.061700
     37 H13         -1.3340     1.1110     1.7140 hc         1 A4S       0.061700
     38 H14         -1.6130     0.6190    -0.7450 hc         1 A4S       0.017200
     39 H15         -2.0680     2.2860    -1.0250 hc         1 A4S       0.017200
     40 H17          0.7090     0.0280    -0.7360 ha         1 A4S       0.162000
     41 H19          2.6330     1.9860    -1.7130 h1         1 A4S       0.011200
     42 H20          2.8470     1.8450     0.0490 h1         1 A4S       0.011200
     43 H24         -0.0240     3.9210     0.5380 hc         1 A4S       0.017700
     44 H25          1.3290     3.7640    -0.5800 hc         1 A4S       0.017700
     45 H26         -0.2950     4.0450    -1.2070 hc         1 A4S       0.017700
     46 H27         -3.3250    -1.9860     0.7980 hc         1 A4S       0.047033
     47 H28         -1.9620    -1.0260     1.3620 hc         1 A4S       0.047033
     48 H29         -3.1260    -1.6640     2.5260 hc         1 A4S       0.047033
@<TRIPOS>BOND
     1     1     2 ar  
     2     1     6 ar  
     3     1    27 1   
     4     2     3 ar  
     5     2    28 1   
     6     3     4 ar  
     7     3    29 1   
     8     4     5 ar  
     9     4    30 1   
    10     5     6 ar  
    11     5    31 1   
    12     6     7 1   
    13     7     8 1   
    14     7    32 1   
    15     8     9 1   
    16     8    33 1   
    17     8    34 1   
    18     9    10 2   
    19     9    26 1   
    20    10    11 1   
    21    10    35 1   
    22    11    12 1   
    23    11    36 1   
    24    11    37 1   
    25    12    13 1   
    26    12    38 1   
    27    12    39 1   
    28    13    14 2   
    29    13    25 1   
    30    14    15 1   
    31    14    40 1   
    32    15    16 1   
    33    15    41 1   
    34    15    42 1   
    35    16    17 1   
    36    17    18 1   
    37    17    19 1   
    38    17    20 1   
    39    19    21 1   
    40    21    22 1   
    41    21    23 1   
    42    21    24 1   
    43    25    43 1   
    44    25    44 1   
    45    25    45 1   
    46    26    46 1   
    47    26    47 1   
    48    26    48 1   
@<TRIPOS>SUBSTRUCTURE
     1 A4S         1 TEMP              0 ****  ****    0 ROOT
