@<TRIPOS>MOLECULE
A4T
   27    28     1     0     0
SMALL
No Charge or Current Charge


@<TRIPOS>ATOM
      1 C1          -2.8930    -0.2920     0.3370 ca         1 A4T      -0.071300
      2 C2          -2.2010    -1.4730     0.6660 ca         1 A4T      -0.116000
      3 C3          -0.8050    -1.5390     0.5280 ca         1 A4T      -0.090000
      4 C4          -0.0630    -0.4270     0.0650 cp         1 A4T      -0.030000
      5 C5           1.4200    -0.5310    -0.0680 cp         1 A4T      -0.079000
      6 C6           1.9880    -1.4640    -0.9690 ca         1 A4T      -0.070000
      7 C8           4.2350    -0.7730    -0.3340 ca         1 A4T      -0.079000
      8 C9           3.6910     0.1500     0.5750 ca         1 A4T      -0.156000
      9 C11         -0.7710     0.7560    -0.2770 ca         1 A4T       0.138000
     10 C12         -2.1690     0.8180    -0.1380 ca         1 A4T      -0.085000
     11 Cl           0.0590     2.1710    -0.9270 cl         1 A4T      -0.197000
     12 C           -4.4060    -0.2130     0.4880 c3         1 A4T       0.197100
     13 N           -5.0870    -0.3640    -0.8120 n8         1 A4T      -1.000200
     14 C10          2.2970     0.2680     0.7090 ca         1 A4T       0.195000
     15 F            1.8040     1.1430     1.6140 f          1 A4T      -0.170000
     16 C7           3.3820    -1.5810    -1.1030 ca         1 A4T      -0.131000
     17 H1          -2.7460    -2.3420     1.0300 ha         1 A4T       0.114000
     18 H2          -0.2850    -2.4580     0.7890 ha         1 A4T       0.119000
     19 H3           1.3370    -2.0950    -1.5710 ha         1 A4T       0.119000
     20 H4           5.3150    -0.8650    -0.4380 ha         1 A4T       0.117000
     21 H5           4.3450     0.7710     1.1800 ha         1 A4T       0.133000
     22 H6          -2.6930     1.7300    -0.4100 ha         1 A4T       0.150000
     23 H7          -4.7560    -1.0040     1.1660 h1         1 A4T       0.037700
     24 H8          -4.6840     0.7560     0.9240 h1         1 A4T       0.037700
     25 H9          -4.8740    -1.2960    -1.1870 hn         1 A4T       0.399500
     26 H10         -6.1020    -0.3930    -0.6540 hn         1 A4T       0.399500
     27 H12          3.8020    -2.3000    -1.8050 ha         1 A4T       0.118000
@<TRIPOS>BOND
     1     1     2 ar  
     2     1    10 ar  
     3     1    12 1   
     4     2     3 ar  
     5     2    17 1   
     6     3     4 ar  
     7     3    18 1   
     8     4     5 1   
     9     4     9 ar  
    10     5     6 ar  
    11     5    14 ar  
    12     6    16 ar  
    13     6    19 1   
    14     7     8 ar  
    15     7    16 ar  
    16     7    20 1   
    17     8    14 ar  
    18     8    21 1   
    19     9    10 ar  
    20     9    11 1   
    21    10    22 1   
    22    12    13 1   
    23    12    23 1   
    24    12    24 1   
    25    13    25 1   
    26    13    26 1   
    27    14    15 1   
    28    16    27 1   
@<TRIPOS>SUBSTRUCTURE
     1 A4T         1 TEMP              0 ****  ****    0 ROOT
