@<TRIPOS>MOLECULE
A4T
   27    28     1     0     0
SMALL
bcc


@<TRIPOS>ATOM
      1 C1          -2.8720    -0.5000     0.2770 ca         1 A4T      -0.071300
      2 C2          -2.1190    -1.5700     0.7530 ca         1 A4T      -0.134000
      3 C3          -0.7400    -1.5690     0.6420 ca         1 A4T      -0.108000
      4 C4          -0.0580    -0.5100     0.0440 cp         1 A4T      -0.030000
      5 C5           1.4130    -0.5600    -0.0840 cp         1 A4T      -0.079000
      6 C6           2.0350    -1.5660    -0.8220 ca         1 A4T      -0.088000
      7 C8           4.2030    -0.6880    -0.2780 ca         1 A4T      -0.097000
      8 C9           3.6100     0.3180     0.4730 ca         1 A4T      -0.174000
      9 C11         -0.8280     0.5430    -0.4420 ca         1 A4T       0.046400
     10 C12         -2.2090     0.5580    -0.3310 ca         1 A4T      -0.103000
     11 CL          -0.0580     1.8670    -1.2570 cl         1 A4T      -0.105400
     12 C           -4.3710    -0.4930     0.4460 c3         1 A4T       0.197100
     13 N           -5.0370     0.3650    -0.5130 n8         1 A4T      -0.889800
     14 C10          2.2320     0.3580     0.5560 ca         1 A4T       0.159900
     15 F            1.6620     1.3160     1.3020 f          1 A4T      -0.134900
     16 C7           3.4170    -1.6320    -0.9230 ca         1 A4T      -0.149000
     17 H1          -2.6150    -2.4140     1.2170 ha         1 A4T       0.132000
     18 H2          -0.1720    -2.4070     1.0270 ha         1 A4T       0.137000
     19 H3           1.4200    -2.3000    -1.3280 ha         1 A4T       0.137000
     20 H4           5.2820    -0.7310    -0.3530 ha         1 A4T       0.135000
     21 H5           4.2060     1.0560     0.9920 ha         1 A4T       0.151000
     22 H6          -2.7770     1.3890    -0.7280 ha         1 A4T       0.168000
     23 H7          -4.7220    -1.5340     0.4370 h1         1 A4T       0.037700
     24 H8          -4.5960    -0.1160     1.4480 h1         1 A4T       0.037700
     25 H9          -5.0360    -0.0740    -1.4250 hn         1 A4T       0.344300
     26 H10         -6.0090     0.4660    -0.2510 hn         1 A4T       0.344300
     27 H12          3.8770    -2.4190    -1.5040 ha         1 A4T       0.136000
@<TRIPOS>BOND
     1     1     2 ar  
     2     1    10 ar  
     3     1    12 1   
     4     2     3 ar  
     5     2    17 1   
     6     3     4 ar  
     7     3    18 1   
     8     4     5 1   
     9     4     9 ar  
    10     5     6 ar  
    11     5    14 ar  
    12     6    16 ar  
    13     6    19 1   
    14     7     8 ar  
    15     7    16 ar  
    16     7    20 1   
    17     8    14 ar  
    18     8    21 1   
    19     9    10 ar  
    20     9    11 1   
    21    10    22 1   
    22    12    13 1   
    23    12    23 1   
    24    12    24 1   
    25    13    25 1   
    26    13    26 1   
    27    14    15 1   
    28    16    27 1   
@<TRIPOS>SUBSTRUCTURE
     1 A4T         1 TEMP              0 ****  ****    0 ROOT
