@<TRIPOS>MOLECULE
A4V
   29    31     1     0     0
SMALL
abcg2


@<TRIPOS>ATOM
      1 N1          -0.5990     1.6330    -0.0280 na         1 A4V      -0.320800
      2 C1          -1.5920     2.1710     0.7450 cc         1 A4V       0.437700
      3 N2          -2.5530     1.3330     0.9880 nd         1 A4V      -0.510100
      4 C2          -2.1820     0.1860     0.3470 cd         1 A4V      -0.076600
      5 C3          -2.8020    -1.0760     0.2350 cc         1 A4V       0.764900
      6 N3          -3.9530    -1.3650     0.7960 nv         1 A4V      -0.969900
      7 N4          -2.1710    -2.0290    -0.4870 nc         1 A4V      -0.774000
      8 C4          -1.0320    -1.7800    -1.0560 cd         1 A4V       0.645400
      9 N5          -0.3670    -0.6100    -1.0050 na         1 A4V      -0.178500
     10 C5          -0.9690     0.3660    -0.2860 cd         1 A4V       0.006000
     11 C6           2.2800    -0.9710     0.3730 ca         1 A4V      -0.096500
     12 C7           3.2880    -0.6820     1.2800 ca         1 A4V      -0.095500
     13 C8           4.0390     0.4800     1.1430 ca         1 A4V      -0.071000
     14 C9           3.7790     1.3490     0.0940 ca         1 A4V      -0.095500
     15 C10          2.7670     1.0610    -0.8140 ca         1 A4V      -0.096500
     16 C11          2.0130    -0.0990    -0.6790 ca         1 A4V      -0.165300
     17 C12          0.9230    -0.4050    -1.6700 c3         1 A4V       0.108900
     18 H1          -1.5340     3.1900     1.0920 h5         1 A4V       0.103800
     19 H2          -4.4500    -0.6860     1.3490 hn         1 A4V       0.542500
     20 H3          -4.3530    -2.2850     0.6990 hn         1 A4V       0.542500
     21 H4          -0.5500    -2.5630    -1.6270 h5         1 A4V       0.085100
     22 H6           3.4890    -1.3670     2.0940 ha         1 A4V       0.136000
     23 H7           4.8230     0.7040     1.8540 ha         1 A4V       0.138000
     24 H8           4.3590     2.2560    -0.0180 ha         1 A4V       0.136000
     25 H9           2.5710     1.7430    -1.6330 ha         1 A4V       0.114500
     26 H10          1.1350    -1.3150    -2.2290 h1         1 A4V       0.088700
     27 H11          0.8090     0.4000    -2.3970 h1         1 A4V       0.088700
     28 H12          0.2370     2.1150    -0.3280 hn         1 A4V       0.396000
     29 H5           1.7030    -1.8820     0.4870 ha         1 A4V       0.114500
@<TRIPOS>BOND
     1     1     2 1   
     2     1    10 2   
     3     1    28 1   
     4     2     3 2   
     5     2    18 1   
     6     3     4 1   
     7     4     5 2   
     8     4    10 1   
     9     5     6 1   
    10     5     7 1   
    11     6    19 1   
    12     6    20 1   
    13     7     8 2   
    14     8     9 1   
    15     8    21 1   
    16     9    10 1   
    17     9    17 1   
    18    11    12 ar  
    19    11    16 ar  
    20    11    29 1   
    21    12    13 ar  
    22    12    22 1   
    23    13    14 ar  
    24    13    23 1   
    25    14    15 ar  
    26    14    24 1   
    27    15    16 ar  
    28    15    25 1   
    29    16    17 1   
    30    17    26 1   
    31    17    27 1   
@<TRIPOS>SUBSTRUCTURE
     1 A4V         1 TEMP              0 ****  ****    0 ROOT
