@<TRIPOS>MOLECULE
A4V
   29    31     1     0     0
SMALL
No Charge or Current Charge


@<TRIPOS>ATOM
      1 N1          -0.5790     1.5110     0.1430 na         1 A4V      -0.320800
      2 C1          -1.5530     2.0720     0.9840 cc         1 A4V       0.437700
      3 N2          -2.6160     1.2300     1.1220 nd         1 A4V      -0.510100
      4 C2          -2.2480     0.1500     0.3330 cd         1 A4V      -0.076600
      5 C3          -2.9240    -1.0250     0.1130 cc         1 A4V       0.764900
      6 N3          -4.1020    -1.3920     0.6000 nv         1 A4V      -0.969900
      7 N4          -2.3880    -2.0070    -0.6670 nc         1 A4V      -0.774000
      8 C4          -1.1660    -1.7930    -1.2350 cd         1 A4V       0.645400
      9 N5          -0.4010    -0.6030    -1.0550 na         1 A4V      -0.178500
     10 C5          -1.0520     0.3090    -0.2550 cd         1 A4V       0.006000
     11 C6           2.1480    -0.7400     0.5350 ca         1 A4V      -0.096500
     12 C7           3.1760    -0.4210     1.4390 ca         1 A4V      -0.095500
     13 C8           4.1030     0.5870     1.1250 ca         1 A4V      -0.071000
     14 C9           4.0010     1.2750    -0.0960 ca         1 A4V      -0.095500
     15 C10          2.9730     0.9570    -1.0010 ca         1 A4V      -0.096500
     16 C11          2.0360    -0.0480    -0.6900 ca         1 A4V      -0.165300
     17 C12          0.9190    -0.3790    -1.6810 c3         1 A4V       0.108900
     18 H1          -1.4340     3.0440     1.4510 h5         1 A4V       0.103800
     19 H2          -4.3780    -0.9020     1.4410 hn         1 A4V       0.542500
     20 H3          -4.2480    -2.3920     0.6050 hn         1 A4V       0.542500
     21 H4          -0.7150    -2.5520    -1.8620 h5         1 A4V       0.085100
     22 H6           3.2560    -0.9570     2.3820 ha         1 A4V       0.136000
     23 H7           4.8990     0.8330     1.8240 ha         1 A4V       0.138000
     24 H8           4.7200     2.0540    -0.3420 ha         1 A4V       0.136000
     25 H9           2.9070     1.4970    -1.9440 ha         1 A4V       0.114500
     26 H10          1.2080    -1.2750    -2.2470 h1         1 A4V       0.088700
     27 H11          0.8160     0.4380    -2.4060 h1         1 A4V       0.088700
     28 H12          0.3130     1.9270    -0.0910 hn         1 A4V       0.396000
     29 H5           1.4400    -1.5250     0.7920 ha         1 A4V       0.114500
@<TRIPOS>BOND
     1     1     2 1   
     2     1    10 2   
     3     1    28 1   
     4     2     3 2   
     5     2    18 1   
     6     3     4 1   
     7     4     5 2   
     8     4    10 1   
     9     5     6 1   
    10     5     7 1   
    11     6    19 1   
    12     6    20 1   
    13     7     8 2   
    14     8     9 1   
    15     8    21 1   
    16     9    10 1   
    17     9    17 1   
    18    11    12 ar  
    19    11    16 ar  
    20    11    29 1   
    21    12    13 ar  
    22    12    22 1   
    23    13    14 ar  
    24    13    23 1   
    25    14    15 ar  
    26    14    24 1   
    27    15    16 ar  
    28    15    25 1   
    29    16    17 1   
    30    17    26 1   
    31    17    27 1   
@<TRIPOS>SUBSTRUCTURE
     1 A4V         1 TEMP              0 ****  ****    0 ROOT
