@<TRIPOS>MOLECULE
A4W
   23    23     1     0     0
SMALL
bcc


@<TRIPOS>ATOM
      1 C10         -0.9770     1.7700    -0.3860 ca         1 A4W      -0.110000
      2 C13         -3.0690     0.0050     0.0590 ca         1 A4W      -0.000600
      3 F01         -1.5310    -1.7670     0.0430 f          1 A4W      -0.132900
      4 C02         -1.7710    -0.4560    -0.0580 ca         1 A4W       0.093900
      5 C03         -0.7030     0.4070    -0.2840 ca         1 A4W       0.038600
      6 N04          0.5730    -0.1420    -0.4200 ns         1 A4W      -0.481100
      7 C05          1.7330     0.4040     0.0420 c          1 A4W       0.677100
      8 C06          2.9440    -0.4680    -0.2120 c3         1 A4W      -0.155400
      9 C07          4.2170     0.1320     0.3530 c3         1 A4W       0.051700
     10 S08          5.5870    -1.0200    -0.0020 sh         1 A4W      -0.418900
     11 O09          1.7920     1.4820     0.5980 o          1 A4W      -0.573100
     12 C11         -2.2770     2.2330    -0.2500 ca         1 A4W      -0.115000
     13 C12         -3.3320     1.3620    -0.0300 ca         1 A4W      -0.114000
     14 CL1         -4.3350    -1.1310     0.3300 cl         1 A4W      -0.076400
     15 H1          -0.1800     2.4700    -0.5820 ha         1 A4W       0.162000
     16 H2           0.6300    -1.0750    -0.7990 hn         1 A4W       0.331500
     17 H3           2.7610    -1.4560     0.2220 hc         1 A4W       0.077200
     18 H4           3.0410    -0.6230    -1.2910 hc         1 A4W       0.077200
     19 H5           4.4310     1.0950    -0.1080 h1         1 A4W       0.075200
     20 H6           4.1350     0.2740     1.4290 h1         1 A4W       0.075200
     21 H7           6.5750    -0.2710     0.4970 hs         1 A4W       0.221800
     22 H8          -2.4710     3.2940    -0.3290 ha         1 A4W       0.144000
     23 H9          -4.3460     1.7250     0.0660 ha         1 A4W       0.153000
@<TRIPOS>BOND
     1     1     5 ar  
     2     1    12 ar  
     3     1    15 1   
     4     2     4 ar  
     5     2    13 ar  
     6     2    14 1   
     7     3     4 1   
     8     4     5 ar  
     9     5     6 1   
    10     6     7 1   
    11     6    16 1   
    12     7     8 1   
    13     7    11 2   
    14     8     9 1   
    15     8    17 1   
    16     8    18 1   
    17     9    10 1   
    18     9    19 1   
    19     9    20 1   
    20    10    21 1   
    21    12    13 ar  
    22    12    22 1   
    23    13    23 1   
@<TRIPOS>SUBSTRUCTURE
     1 A4W         1 TEMP              0 ****  ****    0 ROOT
