@<TRIPOS>MOLECULE
A4W
   23    23     1     0     0
SMALL
No Charge or Current Charge


@<TRIPOS>ATOM
      1 C10         -1.0110     1.8340    -0.2640 ca         1 A4W      -0.092000
      2 C13         -3.0040    -0.0920     0.2180 ca         1 A4W       0.091000
      3 F01         -1.3420    -1.8040     0.0970 f          1 A4W      -0.168000
      4 C02         -1.6640    -0.4900     0.0370 ca         1 A4W       0.129000
      5 C03         -0.6530     0.4660    -0.2080 ca         1 A4W      -0.054000
      6 N04          0.6840    -0.0020    -0.3810 ns         1 A4W      -0.155000
      7 C05          1.8740     0.6470    -0.6850 c          1 A4W       0.610100
      8 C06          3.0930    -0.2750    -0.7710 c3         1 A4W      -0.155400
      9 C07          4.0320    -0.0600     0.4300 c3         1 A4W       0.099600
     10 S08          5.5240    -1.1560     0.3740 sh         1 A4W      -0.466800
     11 O09          1.9700     1.8480    -0.9020 o          1 A4W      -0.573100
     12 C11         -2.3490     2.2280    -0.0820 ca         1 A4W      -0.097000
     13 C12         -3.3450     1.2670     0.1570 ca         1 A4W      -0.096000
     14 Cl1         -4.2650    -1.2870     0.5210 cl         1 A4W      -0.168000
     15 H1          -0.2710     2.6080    -0.4420 ha         1 A4W       0.144000
     16 H2           0.7810    -1.0020    -0.2540 hn         1 A4W       0.165000
     17 H3           2.7770    -1.3250    -0.7840 hc         1 A4W       0.077200
     18 H4           3.6470    -0.0410    -1.6870 hc         1 A4W       0.077200
     19 H5           4.3690     0.9860     0.4530 h1         1 A4W       0.075200
     20 H6           3.4890    -0.2600     1.3650 h1         1 A4W       0.075200
     21 H7           6.0850    -0.7050     1.5260 hs         1 A4W       0.221800
     22 H8          -2.6140     3.2830    -0.1270 ha         1 A4W       0.126000
     23 H9          -4.3790     1.5760     0.2970 ha         1 A4W       0.135000
@<TRIPOS>BOND
     1     1     5 ar  
     2     1    12 ar  
     3     1    15 1   
     4     2     4 ar  
     5     2    13 ar  
     6     2    14 1   
     7     3     4 1   
     8     4     5 ar  
     9     5     6 1   
    10     6     7 1   
    11     6    16 1   
    12     7     8 1   
    13     7    11 2   
    14     8     9 1   
    15     8    17 1   
    16     8    18 1   
    17     9    10 1   
    18     9    19 1   
    19     9    20 1   
    20    10    21 1   
    21    12    13 ar  
    22    12    22 1   
    23    13    23 1   
@<TRIPOS>SUBSTRUCTURE
     1 A4W         1 TEMP              0 ****  ****    0 ROOT
