@<TRIPOS>MOLECULE
A4X
   75    79     1     0     0
SMALL
No Charge or Current Charge


@<TRIPOS>ATOM
      1 C4          -6.3760    -0.0280    -0.2930 cc         1 A4X       0.391800
      2 C14         -6.2770    -3.6510     0.2450 c3         1 A4X      -0.122400
      3 C5          -3.4220    -0.6770     0.9550 c6         1 A4X      -0.077900
      4 C6          -3.5490    -1.0610    -1.5800 c6         1 A4X      -0.077900
      5 C11         -5.8590     1.3820    -0.5300 c3         1 A4X      -0.087000
      6 C7          -6.5750    -2.1910     0.0410 cc         1 A4X       0.380800
      7 C8          -1.2840    -2.1550     0.5680 c5         1 A4X      -0.110900
      8 C9          -1.3610    -2.3900    -0.9810 c5         1 A4X      -0.110900
      9 C12          0.2690     1.5420     0.2330 c3         1 A4X      -0.092400
     10 C13          1.6930     2.0830    -0.0290 c3         1 A4X       0.186000
     11 N1          -5.6400    -1.1970    -0.1540 na         1 A4X      -0.368000
     12 N2          -1.5470    -0.0690    -0.5320 n3         1 A4X      -0.701600
     13 C3          -1.9950    -1.0740    -1.5350 c5         1 A4X       0.161500
     14 N3          -7.6640    -0.3220    -0.1840 nd         1 A4X      -0.367000
     15 C21          3.6370    -2.2980    -0.4500 c6         1 A4X      -0.065900
     16 C23          4.6110    -3.3510     0.1410 c6         1 A4X      -0.127900
     17 C18          6.0430    -3.1820    -0.4250 c6         1 A4X       0.181000
     18 F1           6.0540    -3.5240    -1.7890 f          1 A4X      -0.122000
     19 F2           6.9020    -4.0920     0.2160 f          1 A4X      -0.122000
     20 C24          6.6000    -1.7470    -0.2460 c6         1 A4X      -0.127900
     21 C22          5.6390    -0.6830    -0.8390 c6         1 A4X      -0.065900
     22 C17          4.1990    -0.8590    -0.2840 c6         1 A4X      -0.146700
     23 O1           2.9140     0.3310    -1.9560 o          1 A4X      -0.584100
     24 N5           2.7050     1.0520     0.1940 ns         1 A4X      -0.511900
     25 C15          1.9910     3.2930     0.8230 cc         1 A4X      -0.119300
     26 C25          2.1690     4.5810     0.2500 cc         1 A4X      -0.123000
     27 C27          2.4330     5.5750     1.1550 cd         1 A4X      -0.239000
     28 S1           2.4730     4.9410     2.8050 ss         1 A4X       0.205000
     29 C26          2.1240     3.3160     2.1910 cd         1 A4X      -0.233000
     30 C2          -1.8790    -0.7240     0.7670 c5         1 A4X       0.161500
     31 C1          -4.1640    -1.3960    -0.1980 c6         1 A4X       0.092300
     32 N4          -7.7870    -1.6700     0.0240 nd         1 A4X      -0.362000
     33 C20         -6.3480     1.9510    -1.8820 c3         1 A4X      -0.084600
     34 C19         -6.2130     2.3260     0.6420 c3         1 A4X      -0.084600
     35 H1          -5.6570    -3.7990     1.1370 hc         1 A4X       0.055700
     36 H2          -7.2000    -4.2270     0.3770 hc         1 A4X       0.055700
     37 H3          -5.7440    -4.0620    -0.6190 hc         1 A4X       0.055700
     38 H4          -3.6880    -1.1500     1.9100 hc         1 A4X       0.061950
     39 H5          -3.7280     0.3710     1.0450 hc         1 A4X       0.061950
     40 H6          -3.8790    -0.0830    -1.9450 hc         1 A4X       0.061950
     41 H7          -3.8990    -1.7910    -2.3210 hc         1 A4X       0.061950
     42 H8          -4.7680     1.3720    -0.5870 hc         1 A4X       0.058700
     43 H9          -1.8360    -2.9140     1.1350 hc         1 A4X       0.050200
     44 H10         -0.2460    -2.1990     0.9160 hc         1 A4X       0.050200
     45 H11         -0.3600    -2.5490    -1.3990 hc         1 A4X       0.050200
     46 H12         -1.9530    -3.2740    -1.2420 hc         1 A4X       0.050200
     47 H13          0.0060     0.7170    -1.7330 h1         1 A4X       0.036200
     48 H14          0.5520    -0.4590    -0.5390 h1         1 A4X       0.036200
     49 H15         -0.4480     2.3610     0.1020 hc         1 A4X       0.058700
     50 H16          0.2020     1.2230     1.2780 hc         1 A4X       0.058700
     51 H17          1.7440     2.3960    -1.0810 h1         1 A4X       0.079700
     52 H19         -1.6270    -0.8460    -2.5470 h1         1 A4X       0.069700
     53 H21          2.6570    -2.3800     0.0420 hc         1 A4X       0.062200
     54 H22          4.6380    -3.2510     1.2340 hc         1 A4X       0.067700
     55 H23          4.2410    -4.3640    -0.0690 hc         1 A4X       0.067700
     56 H24          6.7530    -1.5470     0.8230 hc         1 A4X       0.067700
     57 H25          7.5880    -1.6650    -0.7200 hc         1 A4X       0.067700
     58 H26          6.0120     0.3250    -0.6090 hc         1 A4X       0.062200
     59 H27          5.6250    -0.7650    -1.9350 hc         1 A4X       0.062200
     60 H28          4.2800    -0.7000     0.8000 hc         1 A4X       0.054700
     61 H29          3.0330     0.9080     1.1400 hn         1 A4X       0.310500
     62 H30          2.1000     4.7520    -0.8210 ha         1 A4X       0.135000
     63 H31          2.6050     6.6280     0.9690 h4         1 A4X       0.152000
     64 H33          2.0360     2.4880     2.8840 h4         1 A4X       0.144000
     65 H35         -1.4260    -0.2210     1.6310 h1         1 A4X       0.069700
     66 H36         -3.9770    -2.4680    -0.0450 h1         1 A4X       0.059700
     67 H37         -5.9100     2.9390    -2.0690 hc         1 A4X       0.042033
     68 H38         -6.0560     1.2890    -2.7060 hc         1 A4X       0.042033
     69 H39         -7.4400     2.0520    -1.8950 hc         1 A4X       0.042033
     70 H40         -5.8260     1.9270     1.5870 hc         1 A4X       0.042033
     71 H41         -5.7730     3.3190     0.4870 hc         1 A4X       0.042033
     72 H42         -7.2990     2.4440     0.7380 hc         1 A4X       0.042033
     73 C10         -0.1390     0.3790    -0.6990 c3         1 A4X       0.164800
     74 C16          3.2190     0.2250    -0.7780 c          1 A4X       0.600100
     75 H20          3.4660    -2.5080    -1.5150 hc         1 A4X       0.062200
@<TRIPOS>BOND
     1     1     5 1   
     2     1    11 1   
     3     1    14 2   
     4     2     6 1   
     5     2    35 1   
     6     2    36 1   
     7     2    37 1   
     8     3    30 1   
     9     3    31 1   
    10     3    38 1   
    11     3    39 1   
    12     4    13 1   
    13     4    31 1   
    14     4    40 1   
    15     4    41 1   
    16     5    33 1   
    17     5    34 1   
    18     5    42 1   
    19     6    11 1   
    20     6    32 2   
    21     7     8 1   
    22     7    30 1   
    23     7    43 1   
    24     7    44 1   
    25     8    13 1   
    26     8    45 1   
    27     8    46 1   
    28     9    10 1   
    29     9    49 1   
    30     9    50 1   
    31     9    73 1   
    32    10    24 1   
    33    10    25 1   
    34    10    51 1   
    35    11    31 1   
    36    12    13 1   
    37    12    30 1   
    38    12    73 1   
    39    13    52 1   
    40    14    32 1   
    41    15    16 1   
    42    15    22 1   
    43    15    53 1   
    44    15    75 1   
    45    16    17 1   
    46    16    54 1   
    47    16    55 1   
    48    17    18 1   
    49    17    19 1   
    50    17    20 1   
    51    20    21 1   
    52    20    56 1   
    53    20    57 1   
    54    21    22 1   
    55    21    58 1   
    56    21    59 1   
    57    22    60 1   
    58    22    74 1   
    59    23    74 2   
    60    24    61 1   
    61    24    74 1   
    62    25    26 1   
    63    25    29 2   
    64    26    27 2   
    65    26    62 1   
    66    27    28 1   
    67    27    63 1   
    68    28    29 1   
    69    29    64 1   
    70    30    65 1   
    71    31    66 1   
    72    33    67 1   
    73    33    68 1   
    74    33    69 1   
    75    34    70 1   
    76    34    71 1   
    77    34    72 1   
    78    47    73 1   
    79    48    73 1   
@<TRIPOS>SUBSTRUCTURE
     1 A4X         1 TEMP              0 ****  ****    0 ROOT
