@<TRIPOS>MOLECULE
A4X
   75    79     1     0     0
SMALL
abcg2


@<TRIPOS>ATOM
      1 C4          -6.4050     0.4080     0.0970 cc         1 A4X       0.391800
      2 C14         -6.8090    -3.0780     0.9200 c3         1 A4X      -0.122400
      3 C5          -3.5440    -0.6360     1.0560 c6         1 A4X      -0.077900
      4 C6          -4.0280    -1.1240    -1.4070 c6         1 A4X      -0.077900
      5 C11         -5.6920     1.6560    -0.3310 c3         1 A4X      -0.087000
      6 C7          -6.9080    -1.6250     0.6350 cc         1 A4X       0.380800
      7 C8          -1.8300    -2.4590     0.5500 c5         1 A4X      -0.110900
      8 C9          -2.1170    -2.7460    -0.9360 c5         1 A4X      -0.110900
      9 C12          0.1380     0.9840    -0.2160 c3         1 A4X      -0.092400
     10 C13          1.5440     1.3570    -0.6880 c3         1 A4X       0.186000
     11 N1          -5.8710    -0.8390     0.2360 na         1 A4X      -0.368000
     12 N2          -1.8610    -0.3840    -0.6460 n3         1 A4X      -0.701600
     13 C3          -2.5250    -1.3670    -1.5020 c5         1 A4X       0.161500
     14 N3          -7.6740     0.3660     0.3890 nd         1 A4X      -0.367000
     15 C21          5.6320    -1.3210    -1.5600 c6         1 A4X      -0.065900
     16 C23          6.4640    -2.5110    -1.0870 c6         1 A4X      -0.127900
     17 C18          6.9600    -2.3010     0.3230 c6         1 A4X       0.181000
     18 F1           7.8860    -1.2830     0.3340 f          1 A4X      -0.122000
     19 F2           7.6500    -3.4090     0.7480 f          1 A4X      -0.122000
     20 C24          5.8560    -1.9800     1.3010 c6         1 A4X      -0.127900
     21 C22          5.0180    -0.7980     0.8230 c6         1 A4X      -0.065900
     22 C17          4.4830    -1.0390    -0.5970 c6         1 A4X      -0.146700
     23 O1           4.0160     0.9350    -1.9050 o          1 A4X      -0.584100
     24 N5           2.4520     0.2600    -0.4370 ns         1 A4X      -0.511900
     25 C15          1.9930     2.6390    -0.0340 cc         1 A4X      -0.119300
     26 C25          1.5070     3.9180    -0.4360 cc         1 A4X      -0.123000
     27 C27          2.0080     4.9370     0.3120 cd         1 A4X      -0.239000
     28 S1           3.0800     4.3570     1.5170 ss         1 A4X       0.205000
     29 C26          2.8540     2.7320     1.0170 cd         1 A4X      -0.233000
     30 C2          -2.0950    -0.9420     0.6860 c5         1 A4X       0.161500
     31 C1          -4.4940    -1.2770     0.0430 c6         1 A4X       0.092300
     32 N4          -7.9910    -0.9090     0.7270 nd         1 A4X      -0.362000
     33 C20         -6.2760     2.1800    -1.6430 c3         1 A4X      -0.084600
     34 C19         -5.7590     2.7170     0.7680 c3         1 A4X      -0.084600
     35 H1          -6.0920    -3.2890     1.7140 hc         1 A4X       0.055700
     36 H2          -7.7820    -3.4440     1.2400 hc         1 A4X       0.055700
     37 H3          -6.5080    -3.6460     0.0390 hc         1 A4X       0.055700
     38 H4          -3.7760    -1.0120     2.0550 hc         1 A4X       0.061950
     39 H5          -3.6650     0.4480     1.0830 hc         1 A4X       0.061950
     40 H6          -4.2370    -0.1250    -1.7910 hc         1 A4X       0.061950
     41 H7          -4.5740    -1.8300    -2.0380 hc         1 A4X       0.061950
     42 H8          -4.6410     1.4250    -0.5060 hc         1 A4X       0.058700
     43 H9          -2.4550    -3.0460     1.2250 hc         1 A4X       0.050200
     44 H10         -0.7950    -2.6920     0.8040 hc         1 A4X       0.050200
     45 H11         -1.2260    -3.1180    -1.4440 hc         1 A4X       0.050200
     46 H12         -2.8970    -3.4970    -1.0810 hc         1 A4X       0.050200
     47 H13         -0.4040     0.0290    -2.0480 h1         1 A4X       0.036200
     48 H14          0.1500    -1.0970    -0.8260 h1         1 A4X       0.036200
     49 H15         -0.5140     1.8500    -0.3470 hc         1 A4X       0.058700
     50 H16          0.1750     0.7850     0.8600 hc         1 A4X       0.058700
     51 H17          1.5090     1.5250    -1.7690 h1         1 A4X       0.079700
     52 H19         -2.2100    -1.2370    -2.5400 h1         1 A4X       0.069700
     53 H21          5.2500    -1.5320    -2.5590 hc         1 A4X       0.062200
     54 H22          5.8550    -3.4190    -1.1010 hc         1 A4X       0.067700
     55 H23          7.3090    -2.6780    -1.7580 hc         1 A4X       0.067700
     56 H24          5.2170    -2.8620     1.3940 hc         1 A4X       0.067700
     57 H25          6.2780    -1.7780     2.2880 hc         1 A4X       0.067700
     58 H26          4.1980    -0.6520     1.5280 hc         1 A4X       0.062200
     59 H27          5.6140     0.1200     0.8380 hc         1 A4X       0.062200
     60 H28          3.8330    -1.9230    -0.5630 hc         1 A4X       0.054700
     61 H29          2.2050    -0.4090     0.2760 hn         1 A4X       0.310500
     62 H30          0.8160     4.0660    -1.2550 ha         1 A4X       0.135000
     63 H31          1.8110     5.9930     0.2140 h4         1 A4X       0.152000
     64 H33          3.3740     1.9340     1.5250 h4         1 A4X       0.144000
     65 H35         -1.4440    -0.4760     1.4270 h1         1 A4X       0.069700
     66 H36         -4.5050    -2.3480     0.2560 h1         1 A4X       0.059700
     67 H37         -5.7320     3.0680    -1.9670 hc         1 A4X       0.042033
     68 H38         -6.2080     1.4360    -2.4370 hc         1 A4X       0.042033
     69 H39         -7.3260     2.4500    -1.5240 hc         1 A4X       0.042033
     70 H40         -5.2990     2.3670     1.6940 hc         1 A4X       0.042033
     71 H41         -5.2290     3.6160     0.4510 hc         1 A4X       0.042033
     72 H42         -6.7910     2.9910     0.9870 hc         1 A4X       0.042033
     73 C10         -0.4600    -0.1930    -0.9780 c3         1 A4X       0.164800
     74 C16          3.6430     0.1420    -1.0540 c          1 A4X       0.600100
     75 H20          6.2670    -0.4360    -1.6470 hc         1 A4X       0.062200
@<TRIPOS>BOND
     1     1     5 1   
     2     1    11 1   
     3     1    14 2   
     4     2     6 1   
     5     2    35 1   
     6     2    36 1   
     7     2    37 1   
     8     3    30 1   
     9     3    31 1   
    10     3    38 1   
    11     3    39 1   
    12     4    13 1   
    13     4    31 1   
    14     4    40 1   
    15     4    41 1   
    16     5    33 1   
    17     5    34 1   
    18     5    42 1   
    19     6    11 1   
    20     6    32 2   
    21     7     8 1   
    22     7    30 1   
    23     7    43 1   
    24     7    44 1   
    25     8    13 1   
    26     8    45 1   
    27     8    46 1   
    28     9    10 1   
    29     9    49 1   
    30     9    50 1   
    31     9    73 1   
    32    10    24 1   
    33    10    25 1   
    34    10    51 1   
    35    11    31 1   
    36    12    13 1   
    37    12    30 1   
    38    12    73 1   
    39    13    52 1   
    40    14    32 1   
    41    15    16 1   
    42    15    22 1   
    43    15    53 1   
    44    15    75 1   
    45    16    17 1   
    46    16    54 1   
    47    16    55 1   
    48    17    18 1   
    49    17    19 1   
    50    17    20 1   
    51    20    21 1   
    52    20    56 1   
    53    20    57 1   
    54    21    22 1   
    55    21    58 1   
    56    21    59 1   
    57    22    60 1   
    58    22    74 1   
    59    23    74 2   
    60    24    61 1   
    61    24    74 1   
    62    25    26 1   
    63    25    29 2   
    64    26    27 2   
    65    26    62 1   
    66    27    28 1   
    67    27    63 1   
    68    28    29 1   
    69    29    64 1   
    70    30    65 1   
    71    31    66 1   
    72    33    67 1   
    73    33    68 1   
    74    33    69 1   
    75    34    70 1   
    76    34    71 1   
    77    34    72 1   
    78    47    73 1   
    79    48    73 1   
@<TRIPOS>SUBSTRUCTURE
     1 A4X         1 TEMP              0 ****  ****    0 ROOT
