@<TRIPOS>MOLECULE
A4Y
   59    61     1     0     0
SMALL
bcc


@<TRIPOS>ATOM
      1 C10          2.2670    -1.2340    -0.6390 c3         1 A4Y       0.210400
      2 C13         -0.9640     0.6860    -1.7440 c5         1 A4Y       0.181500
      3 C17         -3.6100     2.4730    -0.9440 ca         1 A4Y      -0.388900
      4 C20         -3.9960     4.6630     0.5560 ca         1 A4Y       0.683300
      5 C21         -4.2100     5.8730     1.4130 c3         1 A4Y      -0.122400
      6 C26         -3.4200    -0.6240     0.8860 c3         1 A4Y       0.192800
      7 C28         -3.7510    -1.9500     0.1140 c3         1 A4Y       0.000800
      8 O01          4.6480    -3.2850    -0.9210 o          1 A4Y      -0.888500
      9 O03          6.0050    -1.0990    -0.5890 os         1 A4Y      -0.709800
     10 P04          7.6320    -1.6830    -0.6840 p5         1 A4Y       1.353900
     11 O05          8.4090    -0.4140    -0.3590 o          1 A4Y      -0.955500
     12 O06          7.7050    -2.7730     0.3730 o          1 A4Y      -0.955500
     13 O07          7.7710    -2.1600    -2.1210 o          1 A4Y      -0.955500
     14 O08          4.5300    -2.0040     1.3230 o          1 A4Y      -0.888500
     15 O09          3.6280    -0.9340    -0.8240 os         1 A4Y      -0.550200
     16 C11          1.4370    -0.1010    -1.2180 c3         1 A4Y      -0.081400
     17 C12         -0.0550    -0.3560    -1.1010 c5         1 A4Y       0.044400
     18 N15         -2.2890     0.4000    -1.1860 n3         1 A4Y      -0.719600
     19 C16         -3.3610     1.2200    -1.7330 c6         1 A4Y       0.252100
     20 C18         -4.3200     3.5540    -1.3860 ca         1 A4Y       0.439200
     21 N19         -4.5320     4.6580    -0.6540 nb         1 A4Y      -0.799000
     22 N22         -3.2820     3.6780     1.0930 nb         1 A4Y      -0.812000
     23 C23         -3.0910     2.5850     0.3600 ca         1 A4Y       0.738200
     24 N24         -2.3380     1.5960     0.8720 nu         1 A4Y      -0.849900
     25 C25         -2.2710     0.2770     0.2510 c5         1 A4Y       0.548500
     26 C29         -2.5700    -2.8710    -0.1630 c3         1 A4Y      -0.066100
     27 C30         -4.8270    -2.7860     0.8980 c          1 A4Y       0.906600
     28 O31         -4.4990    -3.3850     1.9280 o          1 A4Y      -0.823300
     29 O32         -5.9510    -2.8150     0.3380 o          1 A4Y      -0.823300
     30 O33         -4.3780    -1.5980    -1.1020 oh         1 A4Y      -0.660800
     31 O34         -4.6060     0.1450     0.8920 oh         1 A4Y      -0.623800
     32 S35         -0.6020    -0.4000     0.6380 ss         1 A4Y      -0.282200
     33 H101         1.9930    -2.1760    -1.1340 h1         1 A4Y       0.004700
     34 H102         2.0360    -1.3590     0.4270 h1         1 A4Y       0.004700
     35 H1          -1.0240     0.4620    -2.8140 h1         1 A4Y       0.056700
     36 H213        -4.7580     5.6070     2.3180 hc         1 A4Y       0.037700
     37 H211        -3.2550     6.2950     1.7300 hc         1 A4Y       0.037700
     38 H212        -4.7710     6.6370     0.8800 hc         1 A4Y       0.037700
     39 H112         1.7010     0.8360    -0.7220 hc         1 A4Y       0.046200
     40 H111         1.6800     0.0130    -2.2800 hc         1 A4Y       0.046200
     41 H5          -0.2860    -1.3290    -1.5450 h1         1 A4Y       0.084700
     42 H142        -0.2350     2.3780    -0.5620 hc         1 A4Y       0.039033
     43 H143         0.4570     2.2540    -2.1810 hc         1 A4Y       0.039033
     44 H141        -1.1830     2.8310    -1.9800 hc         1 A4Y       0.039033
     45 H161        -4.2730     0.6280    -1.8100 h1         1 A4Y       0.058200
     46 H162        -3.0930     1.4760    -2.7600 h1         1 A4Y       0.058200
     47 H181        -4.7480     3.5510    -2.3850 h4         1 A4Y      -0.006900
     48 H241        -2.0090     1.7210     1.8160 hn         1 A4Y       0.454800
     49 H273        -3.9250    -1.2310     2.9000 hc         1 A4Y       0.046367
     50 H272        -2.2650    -1.5930     2.4720 hc         1 A4Y       0.046367
     51 H271        -2.7490     0.0600     2.8420 hc         1 A4Y       0.046367
     52 H293        -1.8660    -2.4220    -0.8580 hc         1 A4Y       0.037033
     53 H291        -2.0330    -3.1340     0.7460 hc         1 A4Y       0.037033
     54 H292        -2.9300    -3.7970    -0.6160 hc         1 A4Y       0.037033
     55 H331        -5.2680    -2.0040    -0.9810 ho         1 A4Y       0.432000
     56 H341        -5.0450    -0.0230     0.0480 ho         1 A4Y       0.416000
     57 C14         -0.4540     2.1190    -1.5960 c3         1 A4Y      -0.116100
     58 P02          4.7420    -1.9900    -0.1670 p5         1 A4Y       1.460800
     59 C27         -3.0620    -0.8630     2.3540 c3         1 A4Y      -0.080100
@<TRIPOS>BOND
     1     1    15 1   
     2     1    16 1   
     3     1    33 1   
     4     1    34 1   
     5     2    17 1   
     6     2    18 1   
     7     2    35 1   
     8     2    57 1   
     9     3    19 1   
    10     3    20 ar  
    11     3    23 ar  
    12     4     5 1   
    13     4    21 ar  
    14     4    22 ar  
    15     5    36 1   
    16     5    37 1   
    17     5    38 1   
    18     6     7 1   
    19     6    25 1   
    20     6    31 1   
    21     6    59 1   
    22     7    26 1   
    23     7    27 1   
    24     7    30 1   
    25     8    58 1   
    26     9    10 1   
    27     9    58 1   
    28    10    11 1   
    29    10    12 1   
    30    10    13 1   
    31    14    58 1   
    32    15    58 1   
    33    16    17 1   
    34    16    39 1   
    35    16    40 1   
    36    17    32 1   
    37    17    41 1   
    38    18    19 1   
    39    18    25 1   
    40    19    45 1   
    41    19    46 1   
    42    20    21 ar  
    43    20    47 1   
    44    22    23 ar  
    45    23    24 1   
    46    24    25 1   
    47    24    48 1   
    48    25    32 1   
    49    26    52 1   
    50    26    53 1   
    51    26    54 1   
    52    27    28 1   
    53    27    29 1   
    54    30    55 1   
    55    31    56 1   
    56    42    57 1   
    57    43    57 1   
    58    44    57 1   
    59    49    59 1   
    60    50    59 1   
    61    51    59 1   
@<TRIPOS>SUBSTRUCTURE
     1 A4Y         1 TEMP              0 ****  ****    0 ROOT
