@<TRIPOS>MOLECULE
A4Y
   59    61     1     0     0
SMALL
No Charge or Current Charge


@<TRIPOS>ATOM
      1 C10          2.6350    -0.7370     0.1240 c3         1 A4Y       0.233600
      2 C13         -0.6720     0.7460    -1.5860 c5         1 A4Y       0.181500
      3 C17         -3.6760     2.1860    -1.2860 ca         1 A4Y      -0.258300
      4 C20         -4.5820     4.4390    -0.1490 ca         1 A4Y       0.157300
      5 C21         -5.0930     5.7140     0.5000 c3         1 A4Y      -0.122400
      6 C26         -3.3120    -0.4690     1.1140 c3         1 A4Y       0.216000
      7 C28         -3.4660    -1.9860     0.6200 c3         1 A4Y       0.024000
      8 O01          6.1790    -0.0480    -1.2180 o          1 A4Y      -0.888500
      9 O03          5.2410    -2.3310    -0.4190 os         1 A4Y      -0.709800
     10 P04          6.4960    -3.1790    -0.8560 p5         1 A4Y       1.353900
     11 O05          6.2210    -4.5920    -0.4760 o          1 A4Y      -0.955500
     12 O06          6.7390    -3.1470    -2.3250 o          1 A4Y      -0.955500
     13 O07          7.7080    -2.7350    -0.1140 o          1 A4Y      -0.955500
     14 O08          4.2510    -1.0480    -2.4220 o          1 A4Y      -0.888500
     15 O09          4.0070    -0.3390     0.0290 os         1 A4Y      -0.573400
     16 C11          1.7570     0.2460    -0.6850 c3         1 A4Y      -0.081400
     17 C12          0.2500    -0.1120    -0.6720 c5         1 A4Y       0.092300
     18 N15         -2.0440     0.3470    -1.1240 n3         1 A4Y      -0.719600
     19 C16         -3.1760     0.8950    -1.8920 c6         1 A4Y       0.252100
     20 C18         -4.5990     3.0100    -1.9470 ca         1 A4Y       0.110900
     21 N19         -5.0560     4.1430    -1.3790 nb         1 A4Y      -0.273000
     22 N22         -3.6990     3.7080     0.5630 nb         1 A4Y      -0.286000
     23 C23         -3.2570     2.5760    -0.0090 ca         1 A4Y       0.409900
     24 N24         -2.3150     1.8720     0.7250 nu         1 A4Y      -0.905100
     25 C25         -2.1690     0.4530     0.3630 c5         1 A4Y       0.596400
     26 C29         -2.1200    -2.7300     0.4010 c3         1 A4Y      -0.066100
     27 C30         -4.3280    -2.8260     1.6600 c          1 A4Y       0.696000
     28 O31         -3.7720    -3.3980     2.5890 o          1 A4Y      -0.718000
     29 O32         -5.4860    -3.0740     1.3410 o          1 A4Y      -0.718000
     30 O33         -4.1680    -2.0100    -0.6640 oh         1 A4Y      -0.723000
     31 O34         -4.6330     0.0710     0.8910 oh         1 A4Y      -0.686000
     32 S35         -0.4730     0.0570     1.0230 ss         1 A4Y      -0.378000
     33 H101         2.4930    -1.7560    -0.2600 h1         1 A4Y       0.004700
     34 H102         2.3200    -0.7300     1.1750 h1         1 A4Y       0.004700
     35 H1          -0.5390     0.4020    -2.6220 h1         1 A4Y       0.056700
     36 H213        -5.8630     5.4880     1.2480 hc         1 A4Y       0.037700
     37 H211        -4.2840     6.2550     1.0060 hc         1 A4Y       0.037700
     38 H212        -5.5340     6.3970    -0.2360 hc         1 A4Y       0.037700
     39 H112         1.9060     1.2530    -0.2800 hc         1 A4Y       0.046200
     40 H111         2.1020     0.2710    -1.7240 hc         1 A4Y       0.046200
     41 H5           0.1630    -1.1620    -0.9790 h1         1 A4Y       0.084700
     42 H142        -0.2350     2.7000    -0.6230 hc         1 A4Y       0.039033
     43 H143         0.6110     2.4380    -2.1440 hc         1 A4Y       0.039033
     44 H141        -1.1000     2.8350    -2.1670 hc         1 A4Y       0.039033
     45 H161        -4.0120     0.1840    -1.9070 h1         1 A4Y       0.058200
     46 H162        -2.8930     1.0630    -2.9430 h1         1 A4Y       0.058200
     47 H181        -4.9800     2.7630    -2.9360 h4         1 A4Y      -0.006900
     48 H241        -2.2340     2.1490     1.6930 hn         1 A4Y       0.510000
     49 H273        -3.9870    -0.7440     3.2090 hc         1 A4Y       0.046367
     50 H272        -2.2500    -1.0050     2.9790 hc         1 A4Y       0.046367
     51 H271        -2.9230     0.6320     2.9960 hc         1 A4Y       0.046367
     52 H293        -1.5850    -2.3330    -0.4640 hc         1 A4Y       0.037033
     53 H291        -1.4730    -2.6620     1.2830 hc         1 A4Y       0.037033
     54 H292        -2.3000    -3.7940     0.2020 hc         1 A4Y       0.037033
     55 H331        -4.9450    -2.6020    -0.5040 ho         1 A4Y       0.471000
     56 H341        -4.8970    -0.3980     0.0650 ho         1 A4Y       0.455000
     57 C14         -0.3380     2.2670    -1.6230 c3         1 A4Y      -0.116100
     58 P02          4.9770    -0.9340    -1.1190 p5         1 A4Y       1.460800
     59 C27         -3.1030    -0.3950     2.6620 c3         1 A4Y      -0.080100
@<TRIPOS>BOND
     1     1    15 1   
     2     1    16 1   
     3     1    33 1   
     4     1    34 1   
     5     2    17 1   
     6     2    18 1   
     7     2    35 1   
     8     2    57 1   
     9     3    19 1   
    10     3    20 ar  
    11     3    23 ar  
    12     4     5 1   
    13     4    21 ar  
    14     4    22 ar  
    15     5    36 1   
    16     5    37 1   
    17     5    38 1   
    18     6     7 1   
    19     6    25 1   
    20     6    31 1   
    21     6    59 1   
    22     7    26 1   
    23     7    27 1   
    24     7    30 1   
    25     8    58 1   
    26     9    10 1   
    27     9    58 1   
    28    10    11 1   
    29    10    12 1   
    30    10    13 1   
    31    14    58 1   
    32    15    58 1   
    33    16    17 1   
    34    16    39 1   
    35    16    40 1   
    36    17    32 1   
    37    17    41 1   
    38    18    19 1   
    39    18    25 1   
    40    19    45 1   
    41    19    46 1   
    42    20    21 ar  
    43    20    47 1   
    44    22    23 ar  
    45    23    24 1   
    46    24    25 1   
    47    24    48 1   
    48    25    32 1   
    49    26    52 1   
    50    26    53 1   
    51    26    54 1   
    52    27    28 1   
    53    27    29 1   
    54    30    55 1   
    55    31    56 1   
    56    42    57 1   
    57    43    57 1   
    58    44    57 1   
    59    49    59 1   
    60    50    59 1   
    61    51    59 1   
@<TRIPOS>SUBSTRUCTURE
     1 A4Y         1 TEMP              0 ****  ****    0 ROOT
