@<TRIPOS>MOLECULE
A4Z
   33    33     1     0     0
SMALL
bcc


@<TRIPOS>ATOM
      1 C1           3.1430     0.8580    -0.8600 c3         1 A4Z      -0.103100
      2 C2           1.6740     0.7880    -0.5600 ca         1 A4Z      -0.122300
      3 C3           1.0850     1.6600     0.3560 ca         1 A4Z      -0.072000
      4 C4          -0.2620     1.5820     0.6560 ca         1 A4Z      -0.192000
      5 C5          -1.0650     0.6150     0.0460 ca         1 A4Z       0.155100
      6 C6          -0.4920    -0.2620    -0.8710 ca         1 A4Z      -0.192000
      7 C7           0.8650    -0.1660    -1.1610 ca         1 A4Z      -0.072000
      8 C8           3.9620     0.1200     0.1830 c          1 A4Z       0.667100
      9 O9           3.7540     0.2140     1.3780 o          1 A4Z      -0.560100
     10 N10          4.9260    -0.6560    -0.3470 ns         1 A4Z      -0.457400
     11 O11          5.8760    -1.2050     0.4610 oh         1 A4Z      -0.388100
     12 O12         -2.3650     0.6110     0.3980 os         1 A4Z      -0.324900
     13 C13         -3.2370    -0.3360    -0.1990 c3         1 A4Z       0.142400
     14 C14         -4.6310    -0.1150     0.3490 c3         1 A4Z      -0.083400
     15 C15         -5.6340    -1.0890    -0.2590 c3         1 A4Z      -0.074400
     16 C16         -7.0470    -0.8670     0.2590 c3         1 A4Z      -0.088100
     17 H1           3.3480     0.4770    -1.8630 hc         1 A4Z       0.063200
     18 H2           3.4850     1.8970    -0.8500 hc         1 A4Z       0.063200
     19 H3           1.6870     2.4210     0.8360 ha         1 A4Z       0.131000
     20 H4          -0.7050     2.2700     1.3660 ha         1 A4Z       0.140500
     21 H5          -1.0780    -1.0220    -1.3680 ha         1 A4Z       0.140500
     22 H6           1.2920    -0.8560    -1.8790 ha         1 A4Z       0.131000
     23 H7           5.1830    -0.6010    -1.3220 hn         1 A4Z       0.330500
     24 H8           5.6030    -2.1180     0.6140 ho         1 A4Z       0.407000
     25 H9          -3.2390    -0.2160    -1.2890 h1         1 A4Z       0.033200
     26 H10         -2.8980    -1.3560     0.0180 h1         1 A4Z       0.033200
     27 H11         -4.6220    -0.2310     1.4370 hc         1 A4Z       0.055700
     28 H12         -4.9460     0.9120     0.1390 hc         1 A4Z       0.055700
     29 H13         -5.6230    -0.9900    -1.3490 hc         1 A4Z       0.038200
     30 H14         -5.3230    -2.1160    -0.0440 hc         1 A4Z       0.038200
     31 H15         -7.7500    -1.5680    -0.1910 hc         1 A4Z       0.034367
     32 H16         -7.0970    -1.0010     1.3410 hc         1 A4Z       0.034367
     33 H17         -7.3960     0.1430     0.0360 hc         1 A4Z       0.034367
@<TRIPOS>BOND
     1     1     2 1   
     2     1     8 1   
     3     1    17 1   
     4     1    18 1   
     5     2     3 ar  
     6     2     7 ar  
     7     3     4 ar  
     8     3    19 1   
     9     4     5 ar  
    10     4    20 1   
    11     5     6 ar  
    12     5    12 1   
    13     6     7 ar  
    14     6    21 1   
    15     7    22 1   
    16     8     9 2   
    17     8    10 1   
    18    10    11 1   
    19    10    23 1   
    20    11    24 1   
    21    12    13 1   
    22    13    14 1   
    23    13    25 1   
    24    13    26 1   
    25    14    15 1   
    26    14    27 1   
    27    14    28 1   
    28    15    16 1   
    29    15    29 1   
    30    15    30 1   
    31    16    31 1   
    32    16    32 1   
    33    16    33 1   
@<TRIPOS>SUBSTRUCTURE
     1 A4Z         1 TEMP              0 ****  ****    0 ROOT
