@<TRIPOS>MOLECULE
A4Z
   33    33     1     0     0
SMALL
No Charge or Current Charge


@<TRIPOS>ATOM
      1 C1           3.2510     1.0960    -0.8090 c3         1 A4Z      -0.103100
      2 C2           1.7570     0.9580    -0.5220 ca         1 A4Z      -0.122300
      3 C3           1.1210     1.8400     0.3720 ca         1 A4Z      -0.054000
      4 C4          -0.2520     1.7090     0.6370 ca         1 A4Z      -0.174000
      5 C5          -1.0040     0.6990     0.0170 ca         1 A4Z       0.155100
      6 C6          -0.3700    -0.1880    -0.8790 ca         1 A4Z      -0.174000
      7 C7           1.0040    -0.0570    -1.1450 ca         1 A4Z      -0.054000
      8 C8           4.0860     0.2870     0.1950 c          1 A4Z       0.600100
      9 O9           4.2880     0.6700     1.3410 o          1 A4Z      -0.560100
     10 N10          4.5810    -0.9210    -0.2860 ns         1 A4Z      -0.390400
     11 O11          5.5860    -1.6630     0.4490 oh         1 A4Z      -0.427100
     12 O12         -2.3490     0.6200     0.3180 os         1 A4Z      -0.348100
     13 C13         -3.2050    -0.3770    -0.2640 c3         1 A4Z       0.165600
     14 C14         -4.6240    -0.1600     0.2970 c3         1 A4Z      -0.083400
     15 C15         -5.6510    -1.1740    -0.2520 c3         1 A4Z      -0.074400
     16 C16         -7.0700    -0.9590     0.3070 c3         1 A4Z      -0.088100
     17 H1           3.4550     0.7450    -1.8270 hc         1 A4Z       0.063200
     18 H2           3.5410     2.1510    -0.7310 hc         1 A4Z       0.063200
     19 H3           1.6910     2.6260     0.8630 ha         1 A4Z       0.113000
     20 H4          -0.7370     2.3930     1.3290 ha         1 A4Z       0.122500
     21 H5          -0.9230    -0.9810    -1.3750 ha         1 A4Z       0.122500
     22 H6           1.4830    -0.7470    -1.8360 ha         1 A4Z       0.113000
     23 H7           4.5060    -1.1310    -1.2810 hn         1 A4Z       0.330500
     24 H8           5.2230    -2.5800     0.4790 ho         1 A4Z       0.446000
     25 H9          -3.2250    -0.2810    -1.3580 h1         1 A4Z       0.033200
     26 H10         -2.8590    -1.3860    -0.0040 h1         1 A4Z       0.033200
     27 H11         -4.5900    -0.2350     1.3910 hc         1 A4Z       0.055700
     28 H12         -4.9530     0.8580     0.0530 hc         1 A4Z       0.055700
     29 H13         -5.6840    -1.1010    -1.3470 hc         1 A4Z       0.038200
     30 H14         -5.3220    -2.1920    -0.0100 hc         1 A4Z       0.038200
     31 H15         -7.7620    -1.7000    -0.1100 hc         1 A4Z       0.034367
     32 H16         -7.0770    -1.0610     1.3990 hc         1 A4Z       0.034367
     33 H17         -7.4420     0.0400     0.0500 hc         1 A4Z       0.034367
@<TRIPOS>BOND
     1     1     2 1   
     2     1     8 1   
     3     1    17 1   
     4     1    18 1   
     5     2     3 ar  
     6     2     7 ar  
     7     3     4 ar  
     8     3    19 1   
     9     4     5 ar  
    10     4    20 1   
    11     5     6 ar  
    12     5    12 1   
    13     6     7 ar  
    14     6    21 1   
    15     7    22 1   
    16     8     9 2   
    17     8    10 1   
    18    10    11 1   
    19    10    23 1   
    20    11    24 1   
    21    12    13 1   
    22    13    14 1   
    23    13    25 1   
    24    13    26 1   
    25    14    15 1   
    26    14    27 1   
    27    14    28 1   
    28    15    16 1   
    29    15    29 1   
    30    15    30 1   
    31    16    31 1   
    32    16    32 1   
    33    16    33 1   
@<TRIPOS>SUBSTRUCTURE
     1 A4Z         1 TEMP              0 ****  ****    0 ROOT
