@<TRIPOS>MOLECULE
A50
   62    64     1     0     0
SMALL
No Charge or Current Charge


@<TRIPOS>ATOM
      1 C12          4.0960     0.4660    -1.2160 ca         1 A50      -0.014000
      2 C13         -3.1010    -0.7570     0.2150 c3         1 A50      -0.032100
      3 C14         -3.5460    -1.6380    -0.9720 c3         1 A50      -0.124700
      4 C15         -6.6250    -4.3940     0.1130 ca         1 A50      -0.167000
      5 C17         -5.9950    -2.1550    -0.5050 ca         1 A50      -0.160000
      6 C18         -4.6610    -2.6000    -0.5940 ca         1 A50       0.348300
      7 C19         -5.2720    -4.7570     0.0040 ca         1 A50       0.341900
      8 C20          6.9610     0.4390     0.9810 c3         1 A50      -0.309400
      9 N1          -4.3010    -3.8800    -0.3430 nb         1 A50      -0.673000
     10 C5          -0.6900    -0.0900    -0.1040 ca         1 A50      -0.087000
     11 C6           0.3500     0.8000    -0.4650 cp         1 A50      -0.057000
     12 C7           4.5220    -0.3790    -0.1720 ca         1 A50      -0.271500
     13 C9           2.2400    -0.4530     0.6790 ca         1 A50      -0.123000
     14 O2           6.8800    -0.7370    -1.3690 o          1 A50      -0.523500
     15 S1           6.2580    -0.8580    -0.0440 sy         1 A50       1.051500
     16 O1           6.3470    -2.1050     0.7280 o          1 A50      -0.523500
     17 C21          8.4550     0.2170     1.2170 c3         1 A50       0.192600
     18 O3           8.9370     1.2840     2.0350 oh         1 A50      -0.653000
     19 C11          2.7460     0.8450    -1.3060 ca         1 A50      -0.123000
     20 C10          1.7890     0.3940    -0.3640 cp         1 A50       0.034000
     21 C8           3.5880    -0.8350     0.7790 ca         1 A50      -0.014000
     22 C1          -0.0160     2.0870    -0.9230 ca         1 A50      -0.090000
     23 C23         -1.3650     2.4640    -1.0180 ca         1 A50      -0.112000
     24 C3          -2.3920     1.5700    -0.6610 ca         1 A50      -0.057300
     25 C24         -3.8410     2.0450    -0.7900 c3         1 A50      -0.035100
     26 C25         -4.3550     2.7100     0.5050 c3         1 A50      -0.073400
     27 C26         -5.8330     3.1500     0.4140 c3         1 A50      -0.077400
     28 C27         -6.3470     3.8140     1.7100 c3         1 A50      -0.075400
     29 C28         -7.8210     4.2510     1.6200 c3         1 A50      -0.089100
     30 C4          -2.0490     0.2750    -0.1920 ca         1 A50      -0.074300
     31 C16         -7.0010    -3.0660    -0.1460 ca         1 A50      -0.071000
     32 H1           4.8030     0.8320    -1.9590 ha         1 A50       0.137000
     33 H2          -3.9770    -0.2730     0.6620 hc         1 A50       0.055700
     34 H3          -2.7020    -1.4080     1.0030 hc         1 A50       0.055700
     35 H4          -3.8830    -0.9970    -1.7940 hc         1 A50       0.059200
     36 H5          -2.6770    -2.1870    -1.3550 hc         1 A50       0.059200
     37 H7          -6.2400    -1.1170    -0.7120 ha         1 A50       0.121000
     38 H8          -4.9550    -5.7810     0.2000 h4         1 A50       0.019100
     39 H9           6.7880     1.3880     0.4640 h1         1 A50       0.107200
     40 H10          6.4150     0.4310     1.9300 h1         1 A50       0.107200
     41 H11         -0.4370    -1.0920     0.2360 ha         1 A50       0.119000
     42 H12          1.5400    -0.8060     1.4310 ha         1 A50       0.123000
     43 H13          8.6160    -0.7500     1.7140 h1         1 A50       0.037200
     44 H14          8.9870     0.2010     0.2550 h1         1 A50       0.037200
     45 H15          9.8970     1.1250     2.1760 ho         1 A50       0.446000
     46 H16          2.4360     1.4860    -2.1280 ha         1 A50       0.123000
     47 H17          3.9000    -1.4830     1.5970 ha         1 A50       0.137000
     48 H18          0.7510     2.8070    -1.1960 ha         1 A50       0.116000
     49 H19         -1.6120     3.4630    -1.3700 ha         1 A50       0.114000
     50 H20         -3.9230     2.7670    -1.6110 hc         1 A50       0.046700
     51 H21         -4.5050     1.2190    -1.0660 hc         1 A50       0.046700
     52 H22         -4.2390     2.0130     1.3440 hc         1 A50       0.043700
     53 H23         -3.7300     3.5830     0.7310 hc         1 A50       0.043700
     54 H24         -5.9490     3.8520    -0.4210 hc         1 A50       0.036700
     55 H25         -6.4550     2.2750     0.1870 hc         1 A50       0.036700
     56 H26         -6.2330     3.1150     2.5470 hc         1 A50       0.038200
     57 H27         -5.7280     4.6910     1.9390 hc         1 A50       0.038200
     58 H28         -7.9620     4.9800     0.8120 hc         1 A50       0.032033
     59 H29         -8.4710     3.3890     1.4260 hc         1 A50       0.032033
     60 H30         -8.1400     4.7160     2.5600 hc         1 A50       0.032033
     61 H31         -8.0400    -2.7520    -0.0690 ha         1 A50       0.119000
     62 H6          -7.3660    -5.1360     0.3950 ha         1 A50       0.124000
@<TRIPOS>BOND
     1     1    12 ar  
     2     1    19 ar  
     3     1    32 1   
     4     2     3 1   
     5     2    30 1   
     6     2    33 1   
     7     2    34 1   
     8     3     6 1   
     9     3    35 1   
    10     3    36 1   
    11     4     7 ar  
    12     4    31 ar  
    13     4    62 1   
    14     5     6 ar  
    15     5    31 ar  
    16     5    37 1   
    17     6     9 ar  
    18     7     9 ar  
    19     7    38 1   
    20     8    15 1   
    21     8    17 1   
    22     8    39 1   
    23     8    40 1   
    24    10    11 ar  
    25    10    30 ar  
    26    10    41 1   
    27    11    20 1   
    28    11    22 ar  
    29    12    15 1   
    30    12    21 ar  
    31    13    20 ar  
    32    13    21 ar  
    33    13    42 1   
    34    14    15 2   
    35    15    16 2   
    36    17    18 1   
    37    17    43 1   
    38    17    44 1   
    39    18    45 1   
    40    19    20 ar  
    41    19    46 1   
    42    21    47 1   
    43    22    23 ar  
    44    22    48 1   
    45    23    24 ar  
    46    23    49 1   
    47    24    25 1   
    48    24    30 ar  
    49    25    26 1   
    50    25    50 1   
    51    25    51 1   
    52    26    27 1   
    53    26    52 1   
    54    26    53 1   
    55    27    28 1   
    56    27    54 1   
    57    27    55 1   
    58    28    29 1   
    59    28    56 1   
    60    28    57 1   
    61    29    58 1   
    62    29    59 1   
    63    29    60 1   
    64    31    61 1   
@<TRIPOS>SUBSTRUCTURE
     1 A50         1 TEMP              0 ****  ****    0 ROOT
