@<TRIPOS>MOLECULE
A50
   62    64     1     0     0
SMALL
abcg2


@<TRIPOS>ATOM
      1 C12          4.0290     0.5410    -1.2940 ca         1 A50      -0.014000
      2 C13         -3.0570    -0.6470     0.1670 c3         1 A50      -0.032100
      3 C14         -3.5500    -1.4910    -1.0180 c3         1 A50      -0.124700
      4 C15         -6.3750    -4.3170     0.3760 ca         1 A50      -0.167000
      5 C17         -5.9370    -2.2370    -0.7080 ca         1 A50      -0.160000
      6 C18         -4.5750    -2.4910    -0.5680 ca         1 A50       0.348300
      7 C19         -5.0020    -4.4830     0.4710 ca         1 A50       0.341900
      8 C20          6.7980     0.3410     1.0470 c3         1 A50      -0.309400
      9 N1          -4.1220    -3.6000     0.0150 nb         1 A50      -0.673000
     10 C5          -0.6790     0.0090    -0.1680 ca         1 A50      -0.087000
     11 C6           0.3440     0.8740    -0.5520 cp         1 A50      -0.057000
     12 C7           4.4230    -0.3130    -0.2740 ca         1 A50      -0.271500
     13 C9           2.1850    -0.3930     0.5630 ca         1 A50      -0.123000
     14 O2           6.7730    -0.5830    -1.4300 o          1 A50      -0.523500
     15 S1           6.1170    -0.8080    -0.1440 sy         1 A50       1.051500
     16 O1           6.1600    -2.1500     0.4370 o          1 A50      -0.523500
     17 C21          8.2610     0.0290     1.3290 c3         1 A50       0.192600
     18 O3           8.6950     0.9840     2.2670 oh         1 A50      -0.653000
     19 C11          2.7000     0.9190    -1.3800 ca         1 A50      -0.123000
     20 C10          1.7570     0.4630    -0.4560 cp         1 A50       0.034000
     21 C8           3.5070    -0.7880     0.6550 ca         1 A50      -0.014000
     22 C1          -0.0100     2.1370    -1.0240 ca         1 A50      -0.090000
     23 C23         -1.3430     2.5000    -1.1040 ca         1 A50      -0.112000
     24 C3          -2.3660     1.6340    -0.7250 ca         1 A50      -0.057300
     25 C24         -3.7930     2.1020    -0.8040 c3         1 A50      -0.035100
     26 C25         -4.3080     2.6750     0.5180 c3         1 A50      -0.073400
     27 C26         -5.7640     3.1130     0.4290 c3         1 A50      -0.077400
     28 C27         -6.3160     3.6470     1.7440 c3         1 A50      -0.075400
     29 C28         -7.7710     4.0830     1.6360 c3         1 A50      -0.089100
     30 C4          -2.0210     0.3660    -0.2390 ca         1 A50      -0.074300
     31 C16         -6.8500    -3.1630    -0.2290 ca         1 A50      -0.071000
     32 H1           4.7380     0.9030    -2.0250 ha         1 A50       0.137000
     33 H2          -3.9100    -0.1630     0.6440 hc         1 A50       0.055700
     34 H3          -2.6280    -1.3170     0.9150 hc         1 A50       0.055700
     35 H4          -3.9750    -0.8430    -1.7870 hc         1 A50       0.059200
     36 H5          -2.7010    -2.0110    -1.4660 hc         1 A50       0.059200
     37 H7          -6.2730    -1.3260    -1.1860 ha         1 A50       0.121000
     38 H8          -4.5930    -5.3740     0.9350 h4         1 A50       0.019100
     39 H9           6.6760     1.3420     0.6300 h1         1 A50       0.107200
     40 H10          6.1960     0.2600     1.9530 h1         1 A50       0.107200
     41 H11         -0.4310    -0.9860     0.1850 ha         1 A50       0.119000
     42 H12          1.4840    -0.7500     1.3050 ha         1 A50       0.123000
     43 H13          8.3510    -0.9910     1.7160 h1         1 A50       0.037200
     44 H14          8.8370     0.0820     0.3990 h1         1 A50       0.037200
     45 H15          9.6080     0.7840     2.4930 ho         1 A50       0.446000
     46 H16          2.3940     1.5620    -2.1950 ha         1 A50       0.123000
     47 H17          3.8120    -1.4540     1.4530 ha         1 A50       0.137000
     48 H18          0.7540     2.8490    -1.3110 ha         1 A50       0.116000
     49 H19         -1.6000     3.4880    -1.4700 ha         1 A50       0.114000
     50 H20         -3.8760     2.8690    -1.5780 hc         1 A50       0.046700
     51 H21         -4.4510     1.2880    -1.1220 hc         1 A50       0.046700
     52 H22         -4.1990     1.9280     1.3110 hc         1 A50       0.043700
     53 H23         -3.6830     3.5240     0.8120 hc         1 A50       0.043700
     54 H24         -5.8660     3.8810    -0.3450 hc         1 A50       0.036700
     55 H25         -6.3760     2.2660     0.0970 hc         1 A50       0.036700
     56 H26         -6.2210     2.8760     2.5150 hc         1 A50       0.038200
     57 H27         -5.7030     4.4890     2.0800 hc         1 A50       0.038200
     58 H28         -7.8890     4.8880     0.9080 hc         1 A50       0.032033
     59 H29         -8.4060     3.2550     1.3150 hc         1 A50       0.032033
     60 H30         -8.1550     4.4430     2.5910 hc         1 A50       0.032033
     61 H31         -7.9130    -2.9870    -0.3280 ha         1 A50       0.119000
     62 H6          -7.0460    -5.0700     0.7650 ha         1 A50       0.124000
@<TRIPOS>BOND
     1     1    12 ar  
     2     1    19 ar  
     3     1    32 1   
     4     2     3 1   
     5     2    30 1   
     6     2    33 1   
     7     2    34 1   
     8     3     6 1   
     9     3    35 1   
    10     3    36 1   
    11     4     7 ar  
    12     4    31 ar  
    13     4    62 1   
    14     5     6 ar  
    15     5    31 ar  
    16     5    37 1   
    17     6     9 ar  
    18     7     9 ar  
    19     7    38 1   
    20     8    15 1   
    21     8    17 1   
    22     8    39 1   
    23     8    40 1   
    24    10    11 ar  
    25    10    30 ar  
    26    10    41 1   
    27    11    20 1   
    28    11    22 ar  
    29    12    15 1   
    30    12    21 ar  
    31    13    20 ar  
    32    13    21 ar  
    33    13    42 1   
    34    14    15 2   
    35    15    16 2   
    36    17    18 1   
    37    17    43 1   
    38    17    44 1   
    39    18    45 1   
    40    19    20 ar  
    41    19    46 1   
    42    21    47 1   
    43    22    23 ar  
    44    22    48 1   
    45    23    24 ar  
    46    23    49 1   
    47    24    25 1   
    48    24    30 ar  
    49    25    26 1   
    50    25    50 1   
    51    25    51 1   
    52    26    27 1   
    53    26    52 1   
    54    26    53 1   
    55    27    28 1   
    56    27    54 1   
    57    27    55 1   
    58    28    29 1   
    59    28    56 1   
    60    28    57 1   
    61    29    58 1   
    62    29    59 1   
    63    29    60 1   
    64    31    61 1   
@<TRIPOS>SUBSTRUCTURE
     1 A50         1 TEMP              0 ****  ****    0 ROOT
