@<TRIPOS>MOLECULE
A51
   25    26     1     0     0
SMALL
abcg2


@<TRIPOS>ATOM
      1 C1          -4.4850    34.6550    47.5100 c5         1 A51       0.162600
      2 C2          -3.4840    35.4340    48.3840 c5         1 A51      -0.046200
      3 C3          -2.3000    35.5680    47.4740 ce         1 A51      -0.376400
      4 C4          -2.6370    35.0590    46.1600 c          1 A51       0.682300
      5 O5          -3.9080    34.5700    46.1800 os         1 A51      -0.437100
      6 O6          -1.9820    35.0240    45.1330 o          1 A51      -0.520000
      7 C7          -1.0780    36.0780    47.7440 c2         1 A51       0.139000
      8 N8          -0.7000    36.5720    48.9440 nu         1 A51      -0.827000
      9 C9           0.5530    37.0940    49.2860 ca         1 A51       0.298000
     10 C10          1.6180    37.1680    48.3830 ca         1 A51      -0.157000
     11 C11          2.8350    37.6990    48.7930 ca         1 A51      -0.073500
     12 C12          3.0150    38.1610    50.0930 ca         1 A51      -0.136000
     13 C13          1.9530    38.0860    50.9900 ca         1 A51      -0.073500
     14 C14          0.7320    37.5600    50.5940 ca         1 A51      -0.157000
     15 H1          -4.6400    33.6360    47.8630 h1         1 A51       0.058200
     16 H1A         -5.4470    35.1540    47.4150 h1         1 A51       0.058200
     17 H2          -3.8870    36.4070    48.6770 hc         1 A51       0.051700
     18 H2A         -3.2520    34.8880    49.3010 hc         1 A51       0.051700
     19 H7          -0.3390    36.0970    46.9550 h4         1 A51       0.216000
     20 HN8         -1.3850    36.5650    49.6860 hn         1 A51       0.494000
     21 H10          1.5120    36.8170    47.3670 ha         1 A51       0.117500
     22 H11          3.6510    37.7490    48.0820 ha         1 A51       0.117500
     23 H12          3.9670    38.5720    50.4020 ha         1 A51       0.120000
     24 H13          2.0720    38.4400    52.0070 ha         1 A51       0.117500
     25 H14         -0.0920    37.5050    51.2950 ha         1 A51       0.117500
@<TRIPOS>BOND
     1     1     2 1   
     2     1     5 1   
     3     1    15 1   
     4     1    16 1   
     5     2     3 1   
     6     2    17 1   
     7     2    18 1   
     8     3     4 1   
     9     3     7 2   
    10     4     5 1   
    11     4     6 2   
    12     7     8 1   
    13     7    19 1   
    14     8     9 1   
    15     8    20 1   
    16     9    10 ar  
    17     9    14 ar  
    18    10    11 ar  
    19    10    21 1   
    20    11    12 ar  
    21    11    22 1   
    22    12    13 ar  
    23    12    23 1   
    24    13    14 ar  
    25    13    24 1   
    26    14    25 1   
@<TRIPOS>SUBSTRUCTURE
     1 A51         1 TEMP              0 ****  ****    0 ROOT
