@<TRIPOS>MOLECULE
A51
   25    26     1     0     0
SMALL
No Charge or Current Charge


@<TRIPOS>ATOM
      1 C1          -4.3750    34.5040    47.6220 c5         1 A51       0.162600
      2 C2          -3.4230    35.4320    48.4230 c5         1 A51      -0.046200
      3 C3          -2.3280    35.6910    47.3920 ce         1 A51      -0.376400
      4 C4          -2.9110    35.3330    46.0750 c          1 A51       0.682300
      5 O5          -4.1630    34.8280    46.2340 os         1 A51      -0.437100
      6 O6          -2.3630    35.4810    44.9930 o          1 A51      -0.520000
      7 C7          -1.0750    36.1630    47.5320 c2         1 A51       0.139000
      8 N8          -0.6340    36.4910    48.8120 nu         1 A51      -0.827000
      9 C9           0.5750    37.0360    49.2490 ca         1 A51       0.298000
     10 C10          1.7530    36.9100    48.4870 ca         1 A51      -0.157000
     11 C11          2.9600    37.4640    48.9500 ca         1 A51      -0.073500
     12 C12          2.9940    38.1440    50.1790 ca         1 A51      -0.136000
     13 C13          1.8230    38.2680    50.9460 ca         1 A51      -0.073500
     14 C14          0.6180    37.7120    50.4800 ca         1 A51      -0.157000
     15 H1          -4.1050    33.4500    47.7740 h1         1 A51       0.058200
     16 H1A         -5.4330    34.6350    47.8880 h1         1 A51       0.058200
     17 H2          -3.9220    36.3630    48.7190 hc         1 A51       0.051700
     18 H2A         -3.0520    34.9430    49.3310 hc         1 A51       0.051700
     19 H7          -0.3850    36.3130    46.6930 h4         1 A51       0.216000
     20 HN8         -1.3630    36.4760    49.5250 hn         1 A51       0.494000
     21 H10          1.7420    36.3770    47.5420 ha         1 A51       0.117500
     22 H11          3.8680    37.3630    48.3580 ha         1 A51       0.117500
     23 H12          3.9270    38.5730    50.5380 ha         1 A51       0.120000
     24 H13          1.8490    38.7930    51.8980 ha         1 A51       0.117500
     25 H14         -0.2840    37.8130    51.0780 ha         1 A51       0.117500
@<TRIPOS>BOND
     1     1     2 1   
     2     1     5 1   
     3     1    15 1   
     4     1    16 1   
     5     2     3 1   
     6     2    17 1   
     7     2    18 1   
     8     3     4 1   
     9     3     7 2   
    10     4     5 1   
    11     4     6 2   
    12     7     8 1   
    13     7    19 1   
    14     8     9 1   
    15     8    20 1   
    16     9    10 ar  
    17     9    14 ar  
    18    10    11 ar  
    19    10    21 1   
    20    11    12 ar  
    21    11    22 1   
    22    12    13 ar  
    23    12    23 1   
    24    13    14 ar  
    25    13    24 1   
    26    14    25 1   
@<TRIPOS>SUBSTRUCTURE
     1 A51         1 TEMP              0 ****  ****    0 ROOT
