@<TRIPOS>MOLECULE
A53
   61    66     1     0     0
SMALL
No Charge or Current Charge


@<TRIPOS>ATOM
      1 C1           8.1820    -1.2040     0.0010 cc         1 A53      -0.223800
      2 C2           8.6610    -2.3970    -0.4690 cd         1 A53      -0.117000
      3 C3          10.0430    -2.4750    -0.2110 cd         1 A53      -0.203000
      4 C4          10.4440    -1.3320     0.4230 cc         1 A53      -0.156000
      5 N5           9.2910    -0.5530     0.5510 na         1 A53      -0.068000
      6 C6           6.8200    -0.6740    -0.0360 ce         1 A53       0.021800
      7 C7           6.2540     0.5040     0.4080 cd         1 A53      -0.199400
      8 C8           6.9140     1.6560     1.1010 c          1 A53       0.584200
      9 N9           5.8910     2.5400     1.3070 ns         1 A53      -0.389100
     10 C10          4.6520     2.1200     0.8410 ca         1 A53       0.058600
     11 C11          4.8300     0.8720     0.2790 ca         1 A53      -0.092800
     12 O12          8.0820     1.8110     1.4260 o          1 A53      -0.584000
     13 C13          3.4110     2.7570     0.8830 ca         1 A53      -0.140000
     14 C14          2.3110     2.0760     0.3230 ca         1 A53      -0.066000
     15 C15          2.4540     0.7810    -0.2670 cp         1 A53      -0.061000
     16 C16          3.7470     0.1790    -0.2830 ca         1 A53      -0.050000
     17 C17          1.2740     0.0730    -0.8590 cp         1 A53      -0.042000
     18 C18          1.4090    -0.7820    -1.9880 ca         1 A53       0.301900
     19 N19          0.3790    -1.4460    -2.5660 nb         1 A53      -0.639000
     20 C20         -0.8540    -1.2840    -2.0290 ca         1 A53       0.246900
     21 C21         -1.1080    -0.4590    -0.9040 ca         1 A53       0.101100
     22 C22         -0.0290     0.2230    -0.3190 ca         1 A53      -0.112000
     23 O23         -2.3660    -0.2970    -0.3530 os         1 A53      -0.320100
     24 C24         -3.5230    -0.9660    -0.8930 c3         1 A53       0.168600
     25 C25         -4.7750    -0.5800    -0.0480 c3         1 A53       0.161500
     26 C26         -6.0240    -1.3980    -0.4680 c3         1 A53      -0.039200
     27 N27         -5.0800     0.8760    -0.0900 n8         1 A53      -0.983200
     28 C28         -7.2490    -1.1140     0.3680 cc         1 A53      -0.153400
     29 C29         -7.6210    -1.7470     1.5510 cd         1 A53      -0.148100
     30 N30         -8.8200    -1.1750     2.0410 na         1 A53      -0.221700
     31 C31         -9.1710    -0.1920     1.1350 ca         1 A53      -0.045200
     32 C32         -8.2610    -0.1240     0.1170 ca         1 A53      -0.101800
     33 C33        -10.2890     0.6520     1.1760 ca         1 A53      -0.125000
     34 C34        -10.4590     1.5850     0.1300 ca         1 A53      -0.090000
     35 C35         -9.5200     1.6500    -0.9260 ca         1 A53      -0.135000
     36 C36         -8.4040     0.7860    -0.9420 ca         1 A53      -0.070000
     37 H2           8.0690    -3.1630    -0.9630 ha         1 A53       0.130000
     38 H3          10.6890    -3.3090    -0.4720 ha         1 A53       0.135000
     39 H4          11.4160    -1.0140     0.7840 h4         1 A53       0.149000
     40 HN5          9.2500     0.3710     0.9850 hn         1 A53       0.395000
     41 H6           6.1160    -1.3550    -0.5130 ha         1 A53       0.185000
     42 HN9          6.0370     3.4300     1.7660 hn         1 A53       0.340500
     43 H13          3.2980     3.7420     1.3280 ha         1 A53       0.123000
     44 H14          1.3390     2.5620     0.3330 ha         1 A53       0.121000
     45 H16          3.8900    -0.8080    -0.7120 ha         1 A53       0.120000
     46 H18          2.3820    -0.9280    -2.4550 h4         1 A53       0.021100
     47 H20         -1.6530    -1.8360    -2.5220 h4         1 A53       0.020100
     48 H22         -0.2030     0.8480     0.5530 ha         1 A53       0.135000
     49 H241        -3.3840    -2.0540    -0.8510 h1         1 A53       0.034200
     50 H242        -3.6840    -0.6790    -1.9410 h1         1 A53       0.034200
     51 H25         -4.5620    -0.8430     0.9980 h1         1 A53       0.072700
     52 H261        -6.2440    -1.2100    -1.5270 hc         1 A53       0.048700
     53 H262        -5.7840    -2.4660    -0.3970 hc         1 A53       0.048700
     54 H271        -5.1350     1.1770    -1.0680 hn         1 A53       0.399500
     55 H272        -6.0440     0.9920     0.2470 hn         1 A53       0.399500
     56 H29         -7.1170    -2.5520     2.0800 h4         1 A53       0.214000
     57 H30         -9.3220    -1.4340     2.8860 hn         1 A53       0.352000
     58 H33        -11.0090     0.5910     1.9900 ha         1 A53       0.115000
     59 H34        -11.3170     2.2530     0.1350 ha         1 A53       0.112000
     60 H35         -9.6590     2.3670    -1.7310 ha         1 A53       0.113000
     61 H36         -7.6820     0.8250    -1.7540 ha         1 A53       0.110000
@<TRIPOS>BOND
     1     1     2 2   
     2     1     5 1   
     3     1     6 1   
     4     2     3 1   
     5     2    37 1   
     6     3     4 2   
     7     3    38 1   
     8     4     5 1   
     9     4    39 1   
    10     5    40 1   
    11     6     7 2   
    12     6    41 1   
    13     7     8 1   
    14     7    11 1   
    15     8     9 1   
    16     8    12 2   
    17     9    10 1   
    18     9    42 1   
    19    10    11 ar  
    20    10    13 ar  
    21    11    16 ar  
    22    13    14 ar  
    23    13    43 1   
    24    14    15 ar  
    25    14    44 1   
    26    15    16 ar  
    27    15    17 1   
    28    16    45 1   
    29    17    18 ar  
    30    17    22 ar  
    31    18    19 ar  
    32    18    46 1   
    33    19    20 ar  
    34    20    21 ar  
    35    20    47 1   
    36    21    22 ar  
    37    21    23 1   
    38    22    48 1   
    39    23    24 1   
    40    24    25 1   
    41    24    49 1   
    42    24    50 1   
    43    25    26 1   
    44    25    27 1   
    45    25    51 1   
    46    26    28 1   
    47    26    52 1   
    48    26    53 1   
    49    27    54 1   
    50    27    55 1   
    51    28    29 2   
    52    28    32 1   
    53    29    30 1   
    54    29    56 1   
    55    30    31 1   
    56    30    57 1   
    57    31    32 ar  
    58    31    33 ar  
    59    32    36 ar  
    60    33    34 ar  
    61    33    58 1   
    62    34    35 ar  
    63    34    59 1   
    64    35    36 ar  
    65    35    60 1   
    66    36    61 1   
@<TRIPOS>SUBSTRUCTURE
     1 A53         1 TEMP              0 ****  ****    0 ROOT
