@<TRIPOS>MOLECULE
A53
   61    66     1     0     0
SMALL
abcg2


@<TRIPOS>ATOM
      1 C1           8.0420    -1.1980    -0.0330 cc         1 A53      -0.223800
      2 C2           8.4910    -2.4070    -0.5700 cd         1 A53      -0.117000
      3 C3           9.8600    -2.5030    -0.3080 cd         1 A53      -0.203000
      4 C4          10.2180    -1.3540     0.3840 cc         1 A53      -0.156000
      5 N5           9.1280    -0.5890     0.5380 na         1 A53      -0.068000
      6 C6           6.7170    -0.7000    -0.0770 ce         1 A53       0.021800
      7 C7           6.1550     0.4490     0.3860 cd         1 A53      -0.199400
      8 C8           6.8040     1.5690     1.1000 c          1 A53       0.584200
      9 N9           5.8260     2.4920     1.3310 ns         1 A53      -0.389100
     10 C10          4.5980     2.0780     0.8490 ca         1 A53       0.058600
     11 C11          4.7540     0.8190     0.2550 ca         1 A53      -0.092800
     12 O12          7.9740     1.7090     1.4450 o          1 A53      -0.584000
     13 C13          3.3740     2.7150     0.8970 ca         1 A53      -0.140000
     14 C14          2.2840     2.0620     0.3360 ca         1 A53      -0.066000
     15 C15          2.4040     0.8020    -0.2580 cp         1 A53      -0.061000
     16 C16          3.6570     0.1820    -0.2960 ca         1 A53      -0.050000
     17 C17          1.2240     0.1340    -0.8350 cp         1 A53      -0.042000
     18 C18          1.3230    -0.6440    -1.9930 ca         1 A53       0.301900
     19 N19          0.2930    -1.2640    -2.5390 nb         1 A53      -0.639000
     20 C20         -0.9070    -1.1520    -1.9820 ca         1 A53       0.246900
     21 C21         -1.1240    -0.3920    -0.8330 ca         1 A53       0.101100
     22 C22         -0.0320     0.2510    -0.2560 ca         1 A53      -0.112000
     23 O23         -2.3090    -0.2350    -0.2270 os         1 A53      -0.320100
     24 C24         -3.4440    -0.8940    -0.7610 c3         1 A53       0.168600
     25 C25         -4.6610    -0.5140     0.0620 c3         1 A53       0.161500
     26 C26         -5.8380    -1.4210    -0.3460 c3         1 A53      -0.039200
     27 N27         -4.9080     0.9110    -0.0590 n8         1 A53      -0.983200
     28 C28         -7.0950    -1.1210     0.4010 cc         1 A53      -0.153400
     29 C29         -7.4920    -1.6670     1.5890 cd         1 A53      -0.148100
     30 N30         -8.6810    -1.1210     1.9880 na         1 A53      -0.221700
     31 C31         -9.0890    -0.2050     1.0650 ca         1 A53      -0.045200
     32 C32         -8.1120    -0.1740     0.0450 ca         1 A53      -0.101800
     33 C33        -10.2280     0.5990     1.0280 ca         1 A53      -0.125000
     34 C34        -10.3780     1.4420    -0.0570 ca         1 A53      -0.090000
     35 C35         -9.4210     1.4860    -1.0850 ca         1 A53      -0.135000
     36 C36         -8.2940     0.6900    -1.0420 ca         1 A53      -0.070000
     37 H2           7.8750    -3.1230    -1.0920 ha         1 A53       0.130000
     38 H3          10.5250    -3.3060    -0.5840 ha         1 A53       0.135000
     39 H4          11.1760    -1.0460     0.7690 h4         1 A53       0.149000
     40 HN5          9.0620     0.3160     1.0020 hn         1 A53       0.395000
     41 H6           6.0400    -1.3800    -0.5860 ha         1 A53       0.185000
     42 HN9          5.9900     3.3560     1.8240 hn         1 A53       0.340500
     43 H13          3.2600     3.6910     1.3510 ha         1 A53       0.123000
     44 H14          1.3220     2.5580     0.3520 ha         1 A53       0.121000
     45 H16          3.7620    -0.8040    -0.7330 ha         1 A53       0.120000
     46 H18          2.2760    -0.7490    -2.5020 h4         1 A53       0.021100
     47 H20         -1.7140    -1.6840    -2.4730 h4         1 A53       0.020100
     48 H22         -0.1750     0.8250     0.6520 ha         1 A53       0.135000
     49 H241        -3.2980    -1.9800    -0.7380 h1         1 A53       0.034200
     50 H242        -3.6000    -0.6030    -1.8080 h1         1 A53       0.034200
     51 H25         -4.4390    -0.7210     1.1150 h1         1 A53       0.072700
     52 H261        -6.0130    -1.3150    -1.4230 hc         1 A53       0.048700
     53 H262        -5.5540    -2.4640    -0.1820 hc         1 A53       0.048700
     54 H271        -5.2170     1.1280    -1.0010 hn         1 A53       0.399500
     55 H272        -5.6710     1.1770     0.5520 hn         1 A53       0.399500
     56 H29         -7.0090    -2.4220     2.1900 h4         1 A53       0.214000
     57 H30         -9.1770    -1.3750     2.8260 hn         1 A53       0.352000
     58 H33        -10.9670     0.5650     1.8180 ha         1 A53       0.115000
     59 H34        -11.2510     2.0790    -0.1170 ha         1 A53       0.112000
     60 H35         -9.5730     2.1570    -1.9210 ha         1 A53       0.113000
     61 H36         -7.5640     0.7330    -1.8420 ha         1 A53       0.110000
@<TRIPOS>BOND
     1     1     2 2   
     2     1     5 1   
     3     1     6 1   
     4     2     3 1   
     5     2    37 1   
     6     3     4 2   
     7     3    38 1   
     8     4     5 1   
     9     4    39 1   
    10     5    40 1   
    11     6     7 2   
    12     6    41 1   
    13     7     8 1   
    14     7    11 1   
    15     8     9 1   
    16     8    12 2   
    17     9    10 1   
    18     9    42 1   
    19    10    11 ar  
    20    10    13 ar  
    21    11    16 ar  
    22    13    14 ar  
    23    13    43 1   
    24    14    15 ar  
    25    14    44 1   
    26    15    16 ar  
    27    15    17 1   
    28    16    45 1   
    29    17    18 ar  
    30    17    22 ar  
    31    18    19 ar  
    32    18    46 1   
    33    19    20 ar  
    34    20    21 ar  
    35    20    47 1   
    36    21    22 ar  
    37    21    23 1   
    38    22    48 1   
    39    23    24 1   
    40    24    25 1   
    41    24    49 1   
    42    24    50 1   
    43    25    26 1   
    44    25    27 1   
    45    25    51 1   
    46    26    28 1   
    47    26    52 1   
    48    26    53 1   
    49    27    54 1   
    50    27    55 1   
    51    28    29 2   
    52    28    32 1   
    53    29    30 1   
    54    29    56 1   
    55    30    31 1   
    56    30    57 1   
    57    31    32 ar  
    58    31    33 ar  
    59    32    36 ar  
    60    33    34 ar  
    61    33    58 1   
    62    34    35 ar  
    63    34    59 1   
    64    35    36 ar  
    65    35    60 1   
    66    36    61 1   
@<TRIPOS>SUBSTRUCTURE
     1 A53         1 TEMP              0 ****  ****    0 ROOT
