@<TRIPOS>MOLECULE
A54
   35    36     1     0     0
SMALL
abcg2


@<TRIPOS>ATOM
      1 C1          -4.0310     0.1630     1.8750 ca         1 A54      -0.098000
      2 C2          -3.4130    -1.0680     2.0480 ca         1 A54      -0.110500
      3 C3          -2.3540    -1.4350     1.2280 ca         1 A54      -0.091000
      4 C4          -1.9090    -0.5820     0.2250 ca         1 A54      -0.132300
      5 C5          -2.5350     0.6490     0.0520 ca         1 A54      -0.091000
      6 C6          -3.5880     1.0200     0.8760 ca         1 A54      -0.110500
      7 C7          -0.7910    -1.0210    -0.6880 c3         1 A54       0.225600
      8 C8          -1.3170    -1.5530    -2.0130 c3         1 A54      -0.075400
      9 C9          -0.2340    -2.1430    -2.9070 c3         1 A54       0.148800
     10 N10         -0.8270    -2.6730    -4.1260 n8         1 A54      -0.996200
     11 O11          0.0750     0.0710    -1.0040 os         1 A54      -0.338100
     12 C12          0.8840     0.5850    -0.0800 ca         1 A54       0.201100
     13 C13          1.0170     0.1150     1.2220 ca         1 A54      -0.199000
     14 C14          1.9100     0.7450     2.0750 ca         1 A54       0.178000
     15 C15          2.6780     1.8310     1.6840 ca         1 A54      -0.152000
     16 C16          2.5410     2.2970     0.3910 ca         1 A54      -0.027000
     17 C17          1.6540     1.6860    -0.4900 ca         1 A54      -0.069000
     18 C18          1.5150     2.1670    -1.8220 cg         1 A54       0.341000
     19 N19          1.4150     2.5690    -2.8980 n1         1 A54      -0.459000
     20 CL2          2.0600     0.1480     3.6880 cl         1 A54      -0.190000
     21 H1          -4.8520     0.4550     2.5170 ha         1 A54       0.116000
     22 H2          -3.7500    -1.7420     2.8260 ha         1 A54       0.116500
     23 H6          -4.0640     1.9820     0.7370 ha         1 A54       0.116500
     24 H3          -1.8700    -2.3940     1.3740 ha         1 A54       0.118500
     25 H5          -2.2020     1.3290    -0.7230 ha         1 A54       0.118500
     26 H7          -0.2090    -1.8140    -0.2010 h1         1 A54       0.052700
     27 H81C        -2.0550    -2.3270    -1.7900 hc         1 A54       0.067200
     28 H82C        -1.8510    -0.7520    -2.5350 hc         1 A54       0.067200
     29 H91C         0.5450    -1.3920    -3.0890 h1         1 A54       0.035200
     30 H92C         0.2500    -2.9680    -2.3750 h1         1 A54       0.035200
     31 H101        -1.1710    -1.9030    -4.6890 hn         1 A54       0.394500
     32 H102        -0.1040    -3.1100    -4.6840 hn         1 A54       0.394500
     33 H13          0.4410    -0.7260     1.5810 ha         1 A54       0.143000
     34 H15          3.3660     2.3040     2.3700 ha         1 A54       0.138000
     35 H16          3.1250     3.1440     0.0570 ha         1 A54       0.131000
@<TRIPOS>BOND
     1     1     2 ar  
     2     1     6 ar  
     3     1    21 1   
     4     2     3 ar  
     5     2    22 1   
     6     3     4 ar  
     7     3    24 1   
     8     4     5 ar  
     9     4     7 1   
    10     5     6 ar  
    11     5    25 1   
    12     6    23 1   
    13     7     8 1   
    14     7    11 1   
    15     7    26 1   
    16     8     9 1   
    17     8    27 1   
    18     8    28 1   
    19     9    10 1   
    20     9    29 1   
    21     9    30 1   
    22    10    31 1   
    23    10    32 1   
    24    11    12 1   
    25    12    13 ar  
    26    12    17 ar  
    27    13    14 ar  
    28    13    33 1   
    29    14    15 ar  
    30    14    20 1   
    31    15    16 ar  
    32    15    34 1   
    33    16    17 ar  
    34    16    35 1   
    35    17    18 1   
    36    18    19 3   
@<TRIPOS>SUBSTRUCTURE
     1 A54         1 TEMP              0 ****  ****    0 ROOT
