@<TRIPOS>MOLECULE
A54
   35    36     1     0     0
SMALL
No Charge or Current Charge


@<TRIPOS>ATOM
      1 C1          -3.9170     0.3190     1.9140 ca         1 A54      -0.098000
      2 C2          -3.2770    -0.9030     2.1790 ca         1 A54      -0.110500
      3 C3          -2.2670    -1.3710     1.3210 ca         1 A54      -0.091000
      4 C4          -1.8860    -0.6180     0.1910 ca         1 A54      -0.132300
      5 C5          -2.5360     0.6070    -0.0700 ca         1 A54      -0.091000
      6 C6          -3.5470     1.0730     0.7890 ca         1 A54      -0.110500
      7 C7          -0.7800    -1.1320    -0.7350 c3         1 A54       0.225600
      8 C8          -1.3480    -1.6380    -2.0780 c3         1 A54      -0.075400
      9 C9          -0.2730    -2.2400    -3.0050 c3         1 A54       0.148800
     10 N10         -0.8650    -2.7640    -4.2530 n8         1 A54      -0.996200
     11 O11          0.1350    -0.0590    -1.0330 os         1 A54      -0.338100
     12 C12          0.9270     0.5550    -0.0760 ca         1 A54       0.201100
     13 C13          1.0790     0.0230     1.2230 ca         1 A54      -0.199000
     14 C14          1.8900     0.6770     2.1610 ca         1 A54       0.178000
     15 C15          2.5610     1.8580     1.8170 ca         1 A54      -0.152000
     16 C16          2.4230     2.3910     0.5240 ca         1 A54      -0.027000
     17 C17          1.6090     1.7410    -0.4240 ca         1 A54      -0.069000
     18 C18          1.4760     2.3030    -1.7400 cg         1 A54       0.341000
     19 N19          1.3780     2.7720    -2.8050 n1         1 A54      -0.459000
     20 Cl2          2.0670     0.0090     3.7770 cl         1 A54      -0.190000
     21 H1          -4.6990     0.6800     2.5790 ha         1 A54       0.116000
     22 H2          -3.5650    -1.4890     3.0500 ha         1 A54       0.116500
     23 H6          -4.0420     2.0190     0.5820 ha         1 A54       0.116500
     24 H3          -1.7800    -2.3200     1.5370 ha         1 A54       0.118500
     25 H5          -2.2570     1.2010    -0.9380 ha         1 A54       0.118500
     26 H7          -0.2500    -1.9650    -0.2550 h1         1 A54       0.052700
     27 H81C        -2.1080    -2.4000    -1.8680 hc         1 A54       0.067200
     28 H82C        -1.8570    -0.8130    -2.5910 hc         1 A54       0.067200
     29 H91C         0.4730    -1.4750    -3.2610 h1         1 A54       0.035200
     30 H92C         0.2390    -3.0630    -2.4870 h1         1 A54       0.035200
     31 H101        -1.2600    -1.9830    -4.7910 hn         1 A54       0.394500
     32 H102        -0.1120    -3.1150    -4.8590 hn         1 A54       0.394500
     33 H13          0.5820    -0.8920     1.5230 ha         1 A54       0.143000
     34 H15          3.1880     2.3590     2.5490 ha         1 A54       0.138000
     35 H16          2.9480     3.3090     0.2630 ha         1 A54       0.131000
@<TRIPOS>BOND
     1     1     2 ar  
     2     1     6 ar  
     3     1    21 1   
     4     2     3 ar  
     5     2    22 1   
     6     3     4 ar  
     7     3    24 1   
     8     4     5 ar  
     9     4     7 1   
    10     5     6 ar  
    11     5    25 1   
    12     6    23 1   
    13     7     8 1   
    14     7    11 1   
    15     7    26 1   
    16     8     9 1   
    17     8    27 1   
    18     8    28 1   
    19     9    10 1   
    20     9    29 1   
    21     9    30 1   
    22    10    31 1   
    23    10    32 1   
    24    11    12 1   
    25    12    13 ar  
    26    12    17 ar  
    27    13    14 ar  
    28    13    33 1   
    29    14    15 ar  
    30    14    20 1   
    31    15    16 ar  
    32    15    34 1   
    33    16    17 ar  
    34    16    35 1   
    35    17    18 1   
    36    18    19 3   
@<TRIPOS>SUBSTRUCTURE
     1 A54         1 TEMP              0 ****  ****    0 ROOT
