@<TRIPOS>MOLECULE
A55
   37    39     1     0     0
SMALL
bcc


@<TRIPOS>ATOM
      1 C2          -5.4020    -1.4890    -0.0090 ca         1 A55      -0.080000
      2 C1          -5.7720    -0.1510     0.0730 ca         1 A55      -0.206000
      3 C6          -4.7840     0.8070     0.0360 ca         1 A55       0.196900
      4 C5          -3.4300     0.4990    -0.0730 ca         1 A55      -0.291900
      5 C4          -3.0650    -0.8590    -0.1190 ca         1 A55       0.181600
      6 C3          -4.0750    -1.8210    -0.1040 ca         1 A55       0.034900
      7 F27         -3.7050    -3.1150    -0.1650 f          1 A55      -0.145900
      8 N7          -1.7430    -1.1810    -0.2080 nu         1 A55      -0.749600
      9 C8          -0.8160    -0.2360     0.3960 c6         1 A55       0.432700
     10 N9          -1.0910     1.1010    -0.0490 n2         1 A55      -0.711900
     11 C10         -2.3100     1.4530    -0.2170 ce         1 A55       0.717800
     12 N11         -2.5860     2.7460    -0.5410 nv         1 A55      -0.900800
     13 C16          0.6040    -0.6280     0.0150 c3         1 A55      -0.086400
     14 C17          1.6300     0.2510     0.7080 c3         1 A55       0.108000
     15 N18          2.9720    -0.1540     0.3480 ns         1 A55      -0.573900
     16 C20          4.0250     0.6800     0.3690 c          1 A55       0.709700
     17 C21          5.3190     0.1020    -0.0440 cc         1 A55      -0.294900
     18 C23          6.5960     0.7100     0.1830 cc         1 A55      -0.216300
     19 C24          7.5060    -0.1170    -0.3710 cd         1 A55       0.216600
     20 O25          6.8880    -1.1830    -0.9320 os         1 A55      -0.320800
     21 C26          5.5720    -1.0430    -0.7320 cd         1 A55       0.263600
     22 O22          3.9440     1.8580     0.6950 o          1 A55      -0.595100
     23 F12         -5.1630     2.0910     0.1150 f          1 A55      -0.133900
     24 H2          -6.1530    -2.2680     0.0170 ha         1 A55       0.155000
     25 H1          -6.8100     0.1340     0.1670 ha         1 A55       0.159000
     26 HN7         -1.5170    -2.1530    -0.0540 hn         1 A55       0.427800
     27 H8          -0.9010    -0.2790     1.4970 h2         1 A55       0.036700
     28 H111        -1.7790     3.2940    -0.7950 hn         1 A55       0.421800
     29 H112        -3.4050     2.9530    -1.0840 hn         1 A55       0.421800
     30 H161         0.7680    -1.6750     0.2920 hc         1 A55       0.050700
     31 H162         0.7150    -0.5540    -1.0700 hc         1 A55       0.050700
     32 H171         1.4860     1.2890     0.4140 h1         1 A55       0.065200
     33 H172         1.4920     0.2020     1.7940 h1         1 A55       0.065200
     34 H18          3.1360    -1.1400     0.2230 hn         1 A55       0.304500
     35 H23          6.7940     1.6350     0.6980 ha         1 A55       0.178000
     36 H24          8.5800    -0.0870    -0.4460 h4         1 A55       0.057100
     37 H26          4.9370    -1.8110    -1.1440 h4         1 A55       0.051100
@<TRIPOS>BOND
     1     1     2 ar  
     2     1     6 ar  
     3     1    24 1   
     4     2     3 ar  
     5     2    25 1   
     6     3     4 ar  
     7     3    23 1   
     8     4     5 ar  
     9     4    11 1   
    10     5     6 ar  
    11     5     8 1   
    12     6     7 1   
    13     8     9 1   
    14     8    26 1   
    15     9    10 1   
    16     9    13 1   
    17     9    27 1   
    18    10    11 2   
    19    11    12 1   
    20    12    28 1   
    21    12    29 1   
    22    13    14 1   
    23    13    30 1   
    24    13    31 1   
    25    14    15 1   
    26    14    32 1   
    27    14    33 1   
    28    15    16 1   
    29    15    34 1   
    30    16    17 1   
    31    16    22 2   
    32    17    18 1   
    33    17    21 2   
    34    18    19 2   
    35    18    35 1   
    36    19    20 1   
    37    19    36 1   
    38    20    21 1   
    39    21    37 1   
@<TRIPOS>SUBSTRUCTURE
     1 A55         1 TEMP              0 ****  ****    0 ROOT
