@<TRIPOS>MOLECULE
A55
   37    39     1     0     0
SMALL
No Charge or Current Charge


@<TRIPOS>ATOM
      1 C2          -5.4270    -1.6390    -0.0060 ca         1 A55      -0.062000
      2 C1          -5.8520    -0.3040    -0.0980 ca         1 A55      -0.188000
      3 C6          -4.9140     0.7410    -0.1460 ca         1 A55       0.232000
      4 C5          -3.5260     0.4640    -0.1020 ca         1 A55      -0.291900
      5 C4          -3.1130    -0.8690    -0.0070 ca         1 A55       0.320000
      6 C3          -4.0550    -1.9220     0.0410 ca         1 A55       0.070000
      7 F27         -3.6470    -3.2110     0.1360 f          1 A55      -0.181000
      8 N7          -1.7450    -1.1090     0.0470 nu         1 A55      -0.943200
      9 C8          -0.8110    -0.1000     0.4840 c6         1 A55       0.432700
     10 N9          -1.2040     1.1610    -0.1230 n2         1 A55      -0.711900
     11 C10         -2.4420     1.4780    -0.1520 ce         1 A55       0.717800
     12 N11         -2.7580     2.7650    -0.4100 nv         1 A55      -1.011200
     13 C16          0.6250    -0.4710     0.0340 c3         1 A55      -0.086400
     14 C17          1.7070     0.5140     0.5190 c3         1 A55       0.108000
     15 N18          3.0510     0.0860     0.1210 ns         1 A55      -0.506900
     16 C20          4.2140     0.6520     0.5900 c          1 A55       0.642700
     17 C21          5.4450     0.0480     0.0420 cc         1 A55      -0.229600
     18 C23          6.7720     0.4260     0.3440 cc         1 A55      -0.133000
     19 C24          7.5850    -0.3960    -0.3850 cd         1 A55       0.106900
     20 O25          6.8530    -1.2830    -1.1420 os         1 A55      -0.232000
     21 C26          5.5400    -0.9830    -0.8560 cd         1 A55       0.153900
     22 O22          4.2120     1.5750     1.3920 o          1 A55      -0.595100
     23 F12         -5.3860     2.0040    -0.2360 f          1 A55      -0.169000
     24 H2          -6.1530    -2.4490     0.0310 ha         1 A55       0.137000
     25 H1          -6.9140    -0.0730    -0.1340 ha         1 A55       0.141000
     26 HN7         -1.4770    -2.0850     0.1720 hn         1 A55       0.483000
     27 H8          -0.8320    -0.0010     1.5810 h2         1 A55       0.036700
     28 H111        -2.0000     3.2970    -0.8160 hn         1 A55       0.477000
     29 H112        -3.6820     2.9230    -0.7900 hn         1 A55       0.477000
     30 H161         0.8760    -1.4660     0.4190 hc         1 A55       0.050700
     31 H162         0.6700    -0.5380    -1.0600 hc         1 A55       0.050700
     32 H171         1.5170     1.5120     0.1010 h1         1 A55       0.065200
     33 H172         1.6660     0.5890     1.6140 h1         1 A55       0.065200
     34 H18          3.1430    -0.6700    -0.5440 hn         1 A55       0.304500
     35 H23          7.0770     1.2160     1.0240 ha         1 A55       0.160000
     36 H24          8.6640    -0.4480    -0.4520 h4         1 A55       0.057100
     37 H26          4.7770    -1.5710    -1.3510 h4         1 A55       0.051100
@<TRIPOS>BOND
     1     1     2 ar  
     2     1     6 ar  
     3     1    24 1   
     4     2     3 ar  
     5     2    25 1   
     6     3     4 ar  
     7     3    23 1   
     8     4     5 ar  
     9     4    11 1   
    10     5     6 ar  
    11     5     8 1   
    12     6     7 1   
    13     8     9 1   
    14     8    26 1   
    15     9    10 1   
    16     9    13 1   
    17     9    27 1   
    18    10    11 2   
    19    11    12 1   
    20    12    28 1   
    21    12    29 1   
    22    13    14 1   
    23    13    30 1   
    24    13    31 1   
    25    14    15 1   
    26    14    32 1   
    27    14    33 1   
    28    15    16 1   
    29    15    34 1   
    30    16    17 1   
    31    16    22 2   
    32    17    18 1   
    33    17    21 2   
    34    18    19 2   
    35    18    35 1   
    36    19    20 1   
    37    19    36 1   
    38    20    21 1   
    39    21    37 1   
@<TRIPOS>SUBSTRUCTURE
     1 A55         1 TEMP              0 ****  ****    0 ROOT
