@<TRIPOS>MOLECULE
A56
   29    31     1     0     0
SMALL
bcc


@<TRIPOS>ATOM
      1 C1          -5.2820    -0.4360     0.2280 ca         1 A56      -0.120000
      2 C2          -4.3910     0.4980    -0.2250 ca         1 A56      -0.116000
      3 C3          -3.0050     0.2160    -0.2330 ca         1 A56      -0.030000
      4 C4          -2.5530    -1.0440     0.2280 ca         1 A56      -0.039000
      5 C5          -3.4970    -1.9900     0.6900 ca         1 A56      -0.110000
      6 C6          -4.8320    -1.6920     0.6900 ca         1 A56      -0.124000
      7 C7          -2.0580     1.1530    -0.7030 ca         1 A56      -0.100000
      8 C8          -0.7230     0.8600    -0.6840 ca         1 A56       0.022100
      9 C9          -0.2490    -0.3900    -0.2090 cp         1 A56      -0.116500
     10 C10         -1.1690    -1.3160     0.2120 ca         1 A56      -0.073000
     11 BR1          0.4680     2.1300    -1.4160 br         1 A56      -0.085100
     12 C12          1.1900    -0.7430    -0.1160 cp         1 A56       0.799500
     13 N13          1.5420    -1.9090    -0.6290 nb         1 A56      -0.833500
     14 C14          2.8460    -2.2050    -0.4850 ca         1 A56       0.963900
     15 N15          3.7450    -1.4190     0.1030 nb         1 A56      -0.887000
     16 C16          3.2630    -0.2770     0.5870 ca         1 A56       0.963900
     17 N17          1.9780     0.1090     0.5100 nb         1 A56      -0.833500
     18 N18          4.1100     0.5480     1.2040 nv         1 A56      -0.959000
     19 N19          3.2600    -3.3770    -0.9700 nv         1 A56      -0.959000
     20 H1          -6.3410    -0.2150     0.2330 ha         1 A56       0.132000
     21 H2          -4.7360     1.4600    -0.5820 ha         1 A56       0.134000
     22 H5          -3.1480    -2.9520     1.0440 ha         1 A56       0.135000
     23 H6          -5.5510    -2.4200     1.0440 ha         1 A56       0.133000
     24 H7          -2.4120     2.1010    -1.0860 ha         1 A56       0.148000
     25 H10         -0.8230    -2.2800     0.5640 ha         1 A56       0.147000
     26 H181         5.0860     0.3200     1.2730 hn         1 A56       0.451550
     27 H182         3.7930     1.4350     1.5510 hn         1 A56       0.451550
     28 H191         2.6220    -3.9730    -1.4680 hn         1 A56       0.451550
     29 H192         4.2330    -3.6230    -0.9470 hn         1 A56       0.451550
@<TRIPOS>BOND
     1     1     2 ar  
     2     1     6 ar  
     3     1    20 1   
     4     2     3 ar  
     5     2    21 1   
     6     3     4 ar  
     7     3     7 ar  
     8     4     5 ar  
     9     4    10 ar  
    10     5     6 ar  
    11     5    22 1   
    12     6    23 1   
    13     7     8 ar  
    14     7    24 1   
    15     8     9 ar  
    16     8    11 1   
    17     9    10 ar  
    18     9    12 1   
    19    10    25 1   
    20    12    13 ar  
    21    12    17 ar  
    22    13    14 ar  
    23    14    15 ar  
    24    14    19 1   
    25    15    16 ar  
    26    16    17 ar  
    27    16    18 1   
    28    18    26 1   
    29    18    27 1   
    30    19    28 1   
    31    19    29 1   
@<TRIPOS>SUBSTRUCTURE
     1 A56         1 TEMP              0 ****  ****    0 ROOT
