@<TRIPOS>MOLECULE
A56
   29    31     1     0     0
SMALL
No Charge or Current Charge


@<TRIPOS>ATOM
      1 C1          -5.3550    -0.4660     0.1420 ca         1 A56      -0.102000
      2 C2          -4.4160     0.5150    -0.2240 ca         1 A56      -0.098000
      3 C3          -3.0400     0.2230    -0.1860 ca         1 A56      -0.030000
      4 C4          -2.6030    -1.0550     0.2160 ca         1 A56      -0.039000
      5 C5          -3.5460    -2.0350     0.5820 ca         1 A56      -0.092000
      6 C6          -4.9200    -1.7390     0.5450 ca         1 A56      -0.106000
      7 C7          -2.0960     1.1950    -0.5550 ca         1 A56      -0.082000
      8 C8          -0.7180     0.9120    -0.5200 ca         1 A56       0.022100
      9 C9          -0.2520    -0.3720    -0.1030 cp         1 A56      -0.116500
     10 C10         -1.2270    -1.3430     0.2520 ca         1 A56      -0.055000
     11 Br1          0.4430     2.3170    -1.1330 br         1 A56      -0.085100
     12 C12          1.2020    -0.7410    -0.0300 cp         1 A56       0.273500
     13 N13          1.5580    -1.9730    -0.4570 nb         1 A56      -0.307500
     14 C14          2.8590    -2.2640    -0.3390 ca         1 A56       0.437900
     15 N15          3.8110    -1.4650     0.1500 nb         1 A56      -0.361000
     16 C16          3.3490    -0.2770     0.5470 ca         1 A56       0.437900
     17 N17          2.0810     0.1450     0.4880 nb         1 A56      -0.307500
     18 N18          4.2570     0.5840     1.0510 nv         1 A56      -1.069400
     19 N19          3.2530    -3.4830    -0.7600 nv         1 A56      -1.069400
     20 H1          -6.4180    -0.2380     0.1130 ha         1 A56       0.114000
     21 H2          -4.7610     1.4990    -0.5360 ha         1 A56       0.116000
     22 H5          -3.2170    -3.0230     0.8950 ha         1 A56       0.117000
     23 H6          -5.6460    -2.4980     0.8290 ha         1 A56       0.115000
     24 H7          -2.4310     2.1770    -0.8810 ha         1 A56       0.130000
     25 H10         -0.9050    -2.3310     0.5730 ha         1 A56       0.129000
     26 H181         5.2400     0.3880     0.8820 hn         1 A56       0.506750
     27 H182         3.9970     1.5640     1.1290 hn         1 A56       0.506750
     28 H191         2.6180    -4.0080    -1.3550 hn         1 A56       0.506750
     29 H192         4.2470    -3.6390    -0.9090 hn         1 A56       0.506750
@<TRIPOS>BOND
     1     1     2 ar  
     2     1     6 ar  
     3     1    20 1   
     4     2     3 ar  
     5     2    21 1   
     6     3     4 ar  
     7     3     7 ar  
     8     4     5 ar  
     9     4    10 ar  
    10     5     6 ar  
    11     5    22 1   
    12     6    23 1   
    13     7     8 ar  
    14     7    24 1   
    15     8     9 ar  
    16     8    11 1   
    17     9    10 ar  
    18     9    12 1   
    19    10    25 1   
    20    12    13 ar  
    21    12    17 ar  
    22    13    14 ar  
    23    14    15 ar  
    24    14    19 1   
    25    15    16 ar  
    26    16    17 ar  
    27    16    18 1   
    28    18    26 1   
    29    18    27 1   
    30    19    28 1   
    31    19    29 1   
@<TRIPOS>SUBSTRUCTURE
     1 A56         1 TEMP              0 ****  ****    0 ROOT
