@<TRIPOS>MOLECULE
A57
   46    47     1     0     0
SMALL
bcc


@<TRIPOS>ATOM
      1 CAP         -1.2360     3.6230    -0.7580 c3         1 A57      -0.096600
      2 CAO         -0.6790     2.5360     0.1600 c3         1 A57      -0.041400
      3 CAQ         -0.7280     2.9820     1.6260 c3         1 A57      -0.096600
      4 CAE         -1.4130     1.2230     0.0070 ca         1 A57       0.046400
      5 CAD         -2.7680     1.2130    -0.2360 ca         1 A57      -0.169500
      6 CAC         -3.4770     0.0260    -0.3460 ca         1 A57       0.062700
      7 CAN         -4.9410     0.0160    -0.6250 c3         1 A57      -0.079800
      8 CAB         -2.7610    -1.1550    -0.2210 ca         1 A57      -0.169500
      9 CAA         -1.4060    -1.1540     0.0220 ca         1 A57       0.046400
     10 CAR         -0.6690    -2.4640     0.1900 c3         1 A57      -0.041400
     11 CAT         -0.7610    -2.9170     1.6520 c3         1 A57      -0.096600
     12 CAS         -1.1920    -3.5460    -0.7530 c3         1 A57      -0.096600
     13 NAF         -0.7620     0.0380     0.1600 na         1 A57       0.018900
     14 CAG          0.6830     0.0360     0.4590 c3         1 A57      -0.013700
     15 CAH          1.5330    -0.0120    -0.8110 c3         1 A57      -0.006100
     16 CAI          2.9780    -0.1180    -0.4820 cc         1 A57      -0.275900
     17 CAM          3.8170    -1.1980    -0.4390 cd         1 A57       0.340200
     18 NAL          5.0670    -0.8220    -0.0390 nd         1 A57      -0.652000
     19 CAK          4.9920     0.4680     0.1630 cc         1 A57       0.425400
     20 NAJ          3.7530     0.9370    -0.0870 na         1 A57      -0.302900
     21 HAT         -0.5670     4.4820    -0.7280 hc         1 A57       0.057867
     22 HAS         -1.2960     3.2850    -1.7930 hc         1 A57       0.057867
     23 HAR         -2.2220     3.9690    -0.4500 hc         1 A57       0.057867
     24 HAQ          0.3630     2.4060    -0.1320 hc         1 A57       0.072700
     25 HAU         -1.7550     3.1880     1.9280 hc         1 A57       0.057867
     26 HAW         -0.3240     2.2320     2.3060 hc         1 A57       0.057867
     27 HAV         -0.1450     3.8940     1.7520 hc         1 A57       0.057867
     28 HAD         -3.2870     2.1550    -0.3410 ha         1 A57       0.185500
     29 HAO         -5.1050    -0.0660    -1.7020 hc         1 A57       0.080700
     30 HAP         -5.4280    -0.8370    -0.1550 hc         1 A57       0.080700
     31 HAN         -5.4200     0.9320    -0.2850 hc         1 A57       0.080700
     32 HAB         -3.2740    -2.1010    -0.3160 ha         1 A57       0.185500
     33 HAX          0.3820    -2.3320    -0.0620 hc         1 A57       0.072700
     34 HA1         -0.1840    -3.8300     1.7910 hc         1 A57       0.057867
     35 HA2         -0.3730    -2.1690     2.3450 hc         1 A57       0.057867
     36 HA3         -1.7970    -3.1220     1.9250 hc         1 A57       0.057867
     37 HAZ         -1.2230    -3.1980    -1.7860 hc         1 A57       0.057867
     38 HAY         -0.5200    -4.4020    -0.7110 hc         1 A57       0.057867
     39 HA0         -2.1850    -3.9010    -0.4780 hc         1 A57       0.057867
     40 HAG          0.9140     0.9090     1.0600 h1         1 A57       0.094700
     41 HAH          0.8990    -0.8080     1.1060 h1         1 A57       0.094700
     42 HAJ          1.2500    -0.8750    -1.4170 hc         1 A57       0.069700
     43 HAI          1.3400     0.8670    -1.4320 hc         1 A57       0.069700
     44 HAM          3.5740    -2.2230    -0.6820 h4         1 A57       0.042100
     45 HAK          5.7970     1.1120     0.4820 h5         1 A57       0.072100
     46 HA4          3.4670     1.9020    -0.0180 hn         1 A57       0.300700
@<TRIPOS>BOND
     1     1     2 1   
     2     1    21 1   
     3     1    22 1   
     4     1    23 1   
     5     2     3 1   
     6     2     4 1   
     7     2    24 1   
     8     3    25 1   
     9     3    26 1   
    10     3    27 1   
    11     4     5 ar  
    12     4    13 2   
    13     5     6 ar  
    14     5    28 1   
    15     6     7 1   
    16     6     8 ar  
    17     7    29 1   
    18     7    30 1   
    19     7    31 1   
    20     8     9 ar  
    21     8    32 1   
    22     9    10 1   
    23     9    13 1   
    24    10    11 1   
    25    10    12 1   
    26    10    33 1   
    27    11    34 1   
    28    11    35 1   
    29    11    36 1   
    30    12    37 1   
    31    12    38 1   
    32    12    39 1   
    33    13    14 1   
    34    14    15 1   
    35    14    40 1   
    36    14    41 1   
    37    15    16 1   
    38    15    42 1   
    39    15    43 1   
    40    16    17 2   
    41    16    20 1   
    42    17    18 1   
    43    17    44 1   
    44    18    19 2   
    45    19    20 1   
    46    19    45 1   
    47    20    46 1   
@<TRIPOS>SUBSTRUCTURE
     1 A57         1 TEMP              0 ****  ****    0 ROOT
