@<TRIPOS>MOLECULE
A57
   46    47     1     0     0
SMALL
No Charge or Current Charge


@<TRIPOS>ATOM
      1 CAP         -1.2420     3.2970    -1.4850 c3         1 A57      -0.096600
      2 CAO         -0.7130     2.5900    -0.2150 c3         1 A57      -0.041400
      3 CAQ         -0.8180     3.5010     1.0300 c3         1 A57      -0.096600
      4 CAE         -1.4190     1.2380     0.0160 ca         1 A57       0.046400
      5 CAD         -2.8180     1.2350     0.1940 ca         1 A57      -0.151500
      6 CAC         -3.5260     0.0340     0.3260 ca         1 A57       0.062700
      7 CAN         -5.0340     0.0440     0.5080 c3         1 A57      -0.079800
      8 CAB         -2.8310    -1.1760     0.2170 ca         1 A57      -0.151500
      9 CAA         -1.4320    -1.1980     0.0390 ca         1 A57      -0.004300
     10 CAR         -0.7420    -2.5620    -0.1640 c3         1 A57      -0.041400
     11 CAT         -0.8640    -3.4500     1.0960 c3         1 A57      -0.096600
     12 CAS         -1.2730    -3.2840    -1.4240 c3         1 A57      -0.096600
     13 NAF         -0.7010     0.0170     0.0720 na         1 A57       0.040300
     14 CAG          0.7160     0.0110     0.5260 c3         1 A57       0.015600
     15 CAH          1.7580    -0.0130    -0.6220 c3         1 A57      -0.006100
     16 CAI          3.1700    -0.0820    -0.1040 cc         1 A57      -0.261300
     17 CAM          4.0250    -1.1540    -0.0320 cd         1 A57       0.274900
     18 NAL          5.2340    -0.7700     0.5130 nd         1 A57      -0.652000
     19 CAK          5.1260     0.5260     0.7720 cc         1 A57       0.425400
     20 NAJ          3.8830     0.9840     0.4080 na         1 A57      -0.302500
     21 HAT         -0.6660     4.2080    -1.6880 hc         1 A57       0.057867
     22 HAS         -1.1510     2.6390    -2.3570 hc         1 A57       0.057867
     23 HAR         -2.2960     3.5820    -1.3790 hc         1 A57       0.057867
     24 HAQ          0.3550     2.4460    -0.3930 hc         1 A57       0.072700
     25 HAU         -1.8580     3.7770     1.2380 hc         1 A57       0.057867
     26 HAW         -0.4150     2.9930     1.9150 hc         1 A57       0.057867
     27 HAV         -0.2460     4.4260     0.8820 hc         1 A57       0.057867
     28 HAD         -3.3660     2.1740     0.2100 ha         1 A57       0.167500
     29 HAO         -5.5440     0.0370    -0.4620 hc         1 A57       0.080700
     30 HAP         -5.3750    -0.8320     1.0720 hc         1 A57       0.080700
     31 HAN         -5.3660     0.9350     1.0550 hc         1 A57       0.080700
     32 HAB         -3.3910    -2.1080     0.2500 ha         1 A57       0.167500
     33 HAX          0.3300    -2.4370    -0.3380 hc         1 A57       0.072700
     34 HA1         -0.3030    -4.3830     0.9680 hc         1 A57       0.057867
     35 HA2         -0.4610    -2.9310     1.9740 hc         1 A57       0.057867
     36 HA3         -1.9100    -3.7090     1.3020 hc         1 A57       0.057867
     37 HAZ         -1.1680    -2.6410    -2.3070 hc         1 A57       0.057867
     38 HAY         -0.7090    -4.2060    -1.6080 hc         1 A57       0.057867
     39 HA0         -2.3320    -3.5510    -1.3200 hc         1 A57       0.057867
     40 HAG          0.8950     0.8890     1.1590 h1         1 A57       0.094700
     41 HAH          0.8790    -0.8570     1.1760 h1         1 A57       0.094700
     42 HAJ          1.5710    -0.8670    -1.2820 hc         1 A57       0.069700
     43 HAI          1.6440     0.8720    -1.2580 hc         1 A57       0.069700
     44 HAM          3.8370    -2.1760    -0.3390 h4         1 A57       0.042100
     45 HAK          5.8850     1.1680     1.2040 h5         1 A57       0.072100
     46 HA4          3.5720     1.9430     0.5050 hn         1 A57       0.351000
@<TRIPOS>BOND
     1     1     2 1   
     2     1    21 1   
     3     1    22 1   
     4     1    23 1   
     5     2     3 1   
     6     2     4 1   
     7     2    24 1   
     8     3    25 1   
     9     3    26 1   
    10     3    27 1   
    11     4     5 ar  
    12     4    13 2   
    13     5     6 ar  
    14     5    28 1   
    15     6     7 1   
    16     6     8 ar  
    17     7    29 1   
    18     7    30 1   
    19     7    31 1   
    20     8     9 ar  
    21     8    32 1   
    22     9    10 1   
    23     9    13 1   
    24    10    11 1   
    25    10    12 1   
    26    10    33 1   
    27    11    34 1   
    28    11    35 1   
    29    11    36 1   
    30    12    37 1   
    31    12    38 1   
    32    12    39 1   
    33    13    14 1   
    34    14    15 1   
    35    14    40 1   
    36    14    41 1   
    37    15    16 1   
    38    15    42 1   
    39    15    43 1   
    40    16    17 2   
    41    16    20 1   
    42    17    18 1   
    43    17    44 1   
    44    18    19 2   
    45    19    20 1   
    46    19    45 1   
    47    20    46 1   
@<TRIPOS>SUBSTRUCTURE
     1 A57         1 TEMP              0 ****  ****    0 ROOT
