@<TRIPOS>MOLECULE
A58
   56    60     1     0     0
SMALL
abcg2


@<TRIPOS>ATOM
      1 C1          -7.2380     0.5740    -3.1810 c3         1 A58      -0.085100
      2 C2          -4.6680    -2.2820    -1.0880 c6         1 A58       0.174500
      3 C3          -5.0500    -0.9870    -0.3790 c6         1 A58      -0.075900
      4 C4          -6.2530    -0.3290    -1.0440 c6         1 A58      -0.069900
      5 C5          -6.0130    -0.0490    -2.5270 c6         1 A58      -0.063700
      6 C6          -5.5880    -1.3340    -3.2370 c6         1 A58      -0.069900
      7 C7          -4.3910    -1.9930    -2.5620 c6         1 A58      -0.075900
      8 N8          -3.5060    -2.8870    -0.4510 n7         1 A58      -0.860400
      9 C9          -3.3880    -4.3120    -0.7080 c3         1 A58       0.208100
     10 C10         -2.0800    -4.8560    -0.2020 ca         1 A58      -0.093300
     11 C11         -0.8800    -4.4130    -0.7690 ca         1 A58      -0.073000
     12 C12          0.3170    -4.9390    -0.3360 ca         1 A58      -0.080300
     13 C13          0.3310    -5.9040     0.6920 ca         1 A58      -0.005000
     14 C14         -0.8460    -6.3350     1.2780 ca         1 A58      -0.102000
     15 C15         -2.0470    -5.8020     0.8190 ca         1 A58      -0.113000
     16 C16          1.7190    -4.6360    -0.8310 c5         1 A58       0.052200
     17 C17          2.5390    -5.5500     0.0250 cc         1 A58      -0.193300
     18 C18          1.7240    -6.2490     0.8830 cd         1 A58      -0.145000
     19 C19          3.8370    -6.0160     0.3030 cc         1 A58       0.375500
     20 N20          3.7880    -6.9300     1.2720 nd         1 A58      -0.528800
     21 N21          2.5070    -7.0580     1.6080 na         1 A58       0.014800
     22 C22          5.1100    -5.6460    -0.3180 ca         1 A58      -0.172500
     23 C23          6.2980    -6.2970     0.0210 ca         1 A58      -0.114000
     24 C24          7.4940    -5.9430    -0.5790 ca         1 A58      -0.099000
     25 C25          7.5520    -4.9310    -1.5350 ca         1 A58      -0.115600
     26 C26          6.3670    -4.2830    -1.8710 ca         1 A58      -0.099000
     27 C27          5.1650    -4.6320    -1.2740 ca         1 A58      -0.114000
     28 C28          8.8720    -4.5480    -2.1900 c          1 A58       0.710600
     29 O29          8.8300    -3.6430    -3.0470 o          1 A58      -0.720000
     30 O30          9.8830    -5.1710    -1.8140 o          1 A58      -0.720000
     31 H11A        -8.0870    -0.1140    -3.1550 hc         1 A58       0.030700
     32 H12         -7.5380     1.4900    -2.6710 hc         1 A58       0.030700
     33 H13         -7.0490     0.8250    -4.2270 hc         1 A58       0.030700
     34 H5          -5.1820     0.6660    -2.6030 hc         1 A58       0.048700
     35 H61         -5.3550    -1.1230    -4.2850 hc         1 A58       0.036450
     36 H62         -6.4340    -2.0320    -3.2450 hc         1 A58       0.036450
     37 H71         -4.1260    -2.9110    -3.0930 hc         1 A58       0.047700
     38 H72         -3.5180    -1.3330    -2.6220 hc         1 A58       0.047700
     39 H2          -5.5440    -2.9540    -1.0310 h1         1 A58       0.015700
     40 H41         -7.1260    -0.9850    -0.9450 hc         1 A58       0.036450
     41 H42         -6.5050     0.6010    -0.5250 hc         1 A58       0.036450
     42 HN8         -3.5680    -2.7510     0.5510 hn         1 A58       0.412000
     43 H91         -3.4370    -4.4690    -1.7880 h1         1 A58       0.031700
     44 H92         -4.2180    -4.8920    -0.2780 h1         1 A58       0.031700
     45 H15         -2.9780    -6.1350     1.2600 ha         1 A58       0.101000
     46 H14         -0.8410    -7.0730     2.0700 ha         1 A58       0.109000
     47 H11         -0.9020    -3.6700    -1.5580 ha         1 A58       0.124000
     48 H161         1.8190    -4.8450    -1.9000 hc         1 A58       0.073700
     49 H162         1.9690    -3.5800    -0.6950 hc         1 A58       0.073700
     50 H21          2.2470    -7.7050     2.3350 hn         1 A58       0.364000
     51 H27          4.2650    -4.1010    -1.5600 ha         1 A58       0.093500
     52 H26          6.3830    -3.4930    -2.6110 ha         1 A58       0.127500
     53 H24          8.4020    -6.4650    -0.3020 ha         1 A58       0.127500
     54 H23          6.2840    -7.0900     0.7580 ha         1 A58       0.093500
     55 H31         -4.1930    -0.3040    -0.3990 hc         1 A58       0.047700
     56 H32         -5.2680    -1.1910     0.6740 hc         1 A58       0.047700
@<TRIPOS>BOND
     1     1     5 1   
     2     1    31 1   
     3     1    32 1   
     4     1    33 1   
     5     2     3 1   
     6     2     7 1   
     7     2     8 1   
     8     2    39 1   
     9     3     4 1   
    10     3    55 1   
    11     3    56 1   
    12     4     5 1   
    13     4    40 1   
    14     4    41 1   
    15     5     6 1   
    16     5    34 1   
    17     6     7 1   
    18     6    35 1   
    19     6    36 1   
    20     7    37 1   
    21     7    38 1   
    22     8     9 1   
    23     8    42 1   
    24     9    10 1   
    25     9    43 1   
    26     9    44 1   
    27    10    11 ar  
    28    10    15 ar  
    29    11    12 ar  
    30    11    47 1   
    31    12    13 ar  
    32    12    16 1   
    33    13    14 ar  
    34    13    18 1   
    35    14    15 ar  
    36    14    46 1   
    37    15    45 1   
    38    16    17 1   
    39    16    48 1   
    40    16    49 1   
    41    17    18 2   
    42    17    19 1   
    43    18    21 1   
    44    19    20 2   
    45    19    22 1   
    46    20    21 1   
    47    21    50 1   
    48    22    23 ar  
    49    22    27 ar  
    50    23    24 ar  
    51    23    54 1   
    52    24    25 ar  
    53    24    53 1   
    54    25    26 ar  
    55    25    28 1   
    56    26    27 ar  
    57    26    52 1   
    58    27    51 1   
    59    28    29 1   
    60    28    30 1   
@<TRIPOS>SUBSTRUCTURE
     1 A58         1 TEMP              0 ****  ****    0 ROOT
