@<TRIPOS>MOLECULE
A58
   56    60     1     0     0
SMALL
No Charge or Current Charge


@<TRIPOS>ATOM
      1 C1          -7.5330     0.7440    -2.8210 c3         1 A58      -0.085100
      2 C2          -4.7180    -2.2950    -1.1910 c6         1 A58       0.174500
      3 C3          -4.9330    -0.9740    -0.4070 c6         1 A58      -0.075900
      4 C4          -6.2310    -0.2540    -0.8490 c6         1 A58      -0.069900
      5 C5          -6.2330     0.0230    -2.3760 c6         1 A58      -0.063700
      6 C6          -6.0160    -1.2960    -3.1660 c6         1 A58      -0.069900
      7 C7          -4.7200    -2.0190    -2.7210 c6         1 A58      -0.075900
      8 N8          -3.4670    -2.9420    -0.7450 n7         1 A58      -0.860400
      9 C9          -3.2220    -4.3260    -1.1900 c3         1 A58       0.208100
     10 C10         -1.9490    -4.8670    -0.5550 ca         1 A58      -0.093300
     11 C11         -0.6920    -4.5580    -1.1290 ca         1 A58      -0.073000
     12 C12          0.4780    -5.0650    -0.5390 ca         1 A58      -0.080300
     13 C13          0.3680    -5.8650     0.6060 ca         1 A58      -0.005000
     14 C14         -0.8530    -6.1910     1.2010 ca         1 A58      -0.102000
     15 C15         -2.0240    -5.6800     0.6050 ca         1 A58      -0.113000
     16 C16          1.9450    -4.8350    -1.0220 c5         1 A58       0.052200
     17 C17          2.5610    -5.6700     0.0920 cc         1 A58      -0.193300
     18 C18          1.7100    -6.2060     0.9430 cd         1 A58      -0.145000
     19 C19          3.8780    -6.0290     0.4580 cc         1 A58       0.375500
     20 N20          3.8330    -6.8010     1.5540 nd         1 A58      -0.528800
     21 N21          2.4600    -6.9160     1.8660 na         1 A58       0.014800
     22 C22          5.1590    -5.6650    -0.1970 ca         1 A58      -0.172500
     23 C23          6.3820    -6.1370     0.3390 ca         1 A58      -0.114000
     24 C24          7.6150    -5.8130    -0.2530 ca         1 A58      -0.099000
     25 C25          7.6740    -5.0020    -1.4070 ca         1 A58      -0.115600
     26 C26          6.4590    -4.5280    -1.9450 ca         1 A58      -0.099000
     27 C27          5.2260    -4.8530    -1.3520 ca         1 A58      -0.114000
     28 C28          9.0090    -4.6500    -2.0500 c          1 A58       0.710600
     29 O29          9.0100    -3.9430    -3.0490 o          1 A58      -0.720000
     30 O30         10.0360    -5.0850    -1.5470 o          1 A58      -0.720000
     31 H11A        -8.4190     0.1270    -2.6260 hc         1 A58       0.030700
     32 H12         -7.6620     1.6930    -2.2870 hc         1 A58       0.030700
     33 H13         -7.5130     0.9700    -3.8940 hc         1 A58       0.030700
     34 H5          -5.4060     0.7090    -2.6080 hc         1 A58       0.048700
     35 H61         -5.9660    -1.0840    -4.2430 hc         1 A58       0.036450
     36 H62         -6.8760    -1.9640    -3.0200 hc         1 A58       0.036450
     37 H71         -4.6300    -2.9600    -3.2790 hc         1 A58       0.047700
     38 H72         -3.8470    -1.4100    -2.9910 hc         1 A58       0.047700
     39 H2          -5.5560    -2.9670    -0.9550 h1         1 A58       0.015700
     40 H41         -7.1020    -0.8690    -0.5790 hc         1 A58       0.036450
     41 H42         -6.3330     0.6900    -0.2960 hc         1 A58       0.036450
     42 HN8         -3.4690    -2.9600     0.2800 hn         1 A58       0.412000
     43 H91         -3.1200    -4.3730    -2.2830 h1         1 A58       0.031700
     44 H92         -4.0660    -4.9720    -0.9120 h1         1 A58       0.031700
     45 H15         -2.9910    -5.9140     1.0430 ha         1 A58       0.101000
     46 H14         -0.8980    -6.8150     2.0900 ha         1 A58       0.109000
     47 H11         -0.6300    -3.9320    -2.0160 ha         1 A58       0.124000
     48 H161         2.1340    -5.2440    -2.0210 hc         1 A58       0.073700
     49 H162         2.2460    -3.7820    -0.9860 hc         1 A58       0.073700
     50 H21          2.1170    -7.4530     2.6620 hn         1 A58       0.364000
     51 H27          4.3330    -4.4560    -1.8150 ha         1 A58       0.093500
     52 H26          6.4630    -3.9000    -2.8340 ha         1 A58       0.127500
     53 H24          8.5290    -6.1990     0.1930 ha         1 A58       0.127500
     54 H23          6.3900    -6.7660     1.2260 ha         1 A58       0.093500
     55 H31         -4.0740    -0.3050    -0.5590 hc         1 A58       0.047700
     56 H32         -4.9800    -1.1810     0.6710 hc         1 A58       0.047700
@<TRIPOS>BOND
     1     1     5 1   
     2     1    31 1   
     3     1    32 1   
     4     1    33 1   
     5     2     3 1   
     6     2     7 1   
     7     2     8 1   
     8     2    39 1   
     9     3     4 1   
    10     3    55 1   
    11     3    56 1   
    12     4     5 1   
    13     4    40 1   
    14     4    41 1   
    15     5     6 1   
    16     5    34 1   
    17     6     7 1   
    18     6    35 1   
    19     6    36 1   
    20     7    37 1   
    21     7    38 1   
    22     8     9 1   
    23     8    42 1   
    24     9    10 1   
    25     9    43 1   
    26     9    44 1   
    27    10    11 ar  
    28    10    15 ar  
    29    11    12 ar  
    30    11    47 1   
    31    12    13 ar  
    32    12    16 1   
    33    13    14 ar  
    34    13    18 1   
    35    14    15 ar  
    36    14    46 1   
    37    15    45 1   
    38    16    17 1   
    39    16    48 1   
    40    16    49 1   
    41    17    18 2   
    42    17    19 1   
    43    18    21 1   
    44    19    20 2   
    45    19    22 1   
    46    20    21 1   
    47    21    50 1   
    48    22    23 ar  
    49    22    27 ar  
    50    23    24 ar  
    51    23    54 1   
    52    24    25 ar  
    53    24    53 1   
    54    25    26 ar  
    55    25    28 1   
    56    26    27 ar  
    57    26    52 1   
    58    27    51 1   
    59    28    29 1   
    60    28    30 1   
@<TRIPOS>SUBSTRUCTURE
     1 A58         1 TEMP              0 ****  ****    0 ROOT
