@<TRIPOS>MOLECULE
A59
   60    62     1     0     0
SMALL
abcg2


@<TRIPOS>ATOM
      1 C12          3.3140     1.9330    -0.3610 ca         1 A59      -0.014500
      2 C13         -3.4950    -0.1480    -1.9380 ce         1 A59      -0.116200
      3 C14         -3.5450    -1.4840    -1.9470 cf         1 A59      -0.288800
      4 C15         -1.5770    -4.1280     0.6560 ca         1 A59      -0.166000
      5 C17         -2.5990    -3.7140    -1.4590 ca         1 A59      -0.154000
      6 C18         -2.8620    -2.4100    -1.0360 ca         1 A59       0.393800
      7 C19         -1.9050    -2.8220     0.9970 ca         1 A59       0.336900
      8 C20          5.9410     0.1970     1.3270 c3         1 A59      -0.309400
      9 N1          -2.5300    -1.9850     0.1840 nb         1 A59      -0.661000
     10 C5          -1.2660     0.5280    -1.1050 ca         1 A59      -0.064000
     11 C6          -0.4130     1.3470    -0.3740 cp         1 A59      -0.063000
     12 C7           3.7790     0.6250    -0.3950 ca         1 A59      -0.273500
     13 C9           1.5380    -0.2020    -0.4030 ca         1 A59      -0.124500
     14 O2           6.1940     1.4940    -0.9650 o          1 A59      -0.524500
     15 S1           5.5220     0.3200    -0.4090 sy         1 A59       1.050500
     16 O1           5.7610    -0.9800    -1.0330 o          1 A59      -0.524500
     17 C21          7.4290    -0.0650     1.5090 c3         1 A59       0.192600
     18 O3           7.6490    -0.1540     2.8960 oh         1 A59      -0.653000
     19 C11          1.9500     2.1630    -0.3520 ca         1 A59      -0.124500
     20 C10          1.0410     1.1030    -0.3780 cp         1 A59       0.036000
     21 C8           2.8990    -0.4490    -0.4170 ca         1 A59      -0.014500
     22 C1          -0.9690     2.3950     0.3610 ca         1 A59      -0.087000
     23 C23         -2.3390     2.5910     0.3660 ca         1 A59      -0.112000
     24 C3          -3.1970     1.7640    -0.3540 ca         1 A59      -0.047300
     25 C24         -4.6840     1.9370    -0.2480 c3         1 A59      -0.032100
     26 C25         -5.2880     0.9740     0.7770 c3         1 A59      -0.077400
     27 C26         -6.8080     1.0500     0.8370 c3         1 A59      -0.075400
     28 C27         -7.4100     0.1080     1.8720 c3         1 A59      -0.075400
     29 C28         -8.9300     0.1800     1.9280 c3         1 A59      -0.089100
     30 C4          -2.6450     0.7140    -1.0980 ca         1 A59      -0.039800
     31 C16         -1.9410    -4.5820    -0.6030 ca         1 A59      -0.073000
     32 H1           4.0010     2.7680    -0.3520 ha         1 A59       0.136500
     33 H2          -4.1240     0.3670    -2.6590 ha         1 A59       0.178000
     34 H3          -4.1550    -1.9540    -2.7110 ha         1 A59       0.178000
     35 H5          -2.9020    -4.0350    -2.4470 ha         1 A59       0.123000
     36 H6          -1.6530    -2.4390     1.9800 h4         1 A59       0.020100
     37 H7           5.6410     1.1360     1.7960 h1         1 A59       0.106700
     38 H8           5.3390    -0.6130     1.7430 h1         1 A59       0.106700
     39 H9          -0.8540    -0.2650    -1.7160 ha         1 A59       0.117000
     40 H10          0.8540    -1.0410    -0.3940 ha         1 A59       0.124000
     41 H11          7.7050    -0.9910     0.9920 h1         1 A59       0.037200
     42 H12          8.0040     0.7500     1.0580 h1         1 A59       0.037200
     43 H13          8.5880    -0.3080     3.0380 ho         1 A59       0.446000
     44 H14          1.5910     3.1850    -0.3490 ha         1 A59       0.124000
     45 H15          3.2610    -1.4680    -0.4400 ha         1 A59       0.136500
     46 H16         -0.3330     3.0470     0.9470 ha         1 A59       0.114000
     47 H17         -2.7560     3.4010     0.9530 ha         1 A59       0.114000
     48 H18         -4.9200     2.9660     0.0360 hc         1 A59       0.044700
     49 H19         -5.1590     1.7670    -1.2190 hc         1 A59       0.044700
     50 H20         -4.9780    -0.0480     0.5370 hc         1 A59       0.050200
     51 H21         -4.8700     1.1980     1.7640 hc         1 A59       0.050200
     52 H22         -7.1150     2.0780     1.0610 hc         1 A59       0.034700
     53 H23         -7.2220     0.8180    -0.1500 hc         1 A59       0.034700
     54 H24         -7.0990    -0.9180     1.6490 hc         1 A59       0.038700
     55 H25         -6.9970     0.3430     2.8580 hc         1 A59       0.038700
     56 H26         -9.3350    -0.5020     2.6770 hc         1 A59       0.030700
     57 H27         -9.2680     1.1860     2.1810 hc         1 A59       0.030700
     58 H28         -9.3740    -0.0840     0.9660 hc         1 A59       0.030700
     59 H29         -1.7190    -5.5950    -0.9120 ha         1 A59       0.120000
     60 H4          -1.0630    -4.7660     1.3610 ha         1 A59       0.125000
@<TRIPOS>BOND
     1     1    12 ar  
     2     1    19 ar  
     3     1    32 1   
     4     2     3 2   
     5     2    30 1   
     6     2    33 1   
     7     3     6 1   
     8     3    34 1   
     9     4     7 ar  
    10     4    31 ar  
    11     4    60 1   
    12     5     6 ar  
    13     5    31 ar  
    14     5    35 1   
    15     6     9 ar  
    16     7     9 ar  
    17     7    36 1   
    18     8    15 1   
    19     8    17 1   
    20     8    37 1   
    21     8    38 1   
    22    10    11 ar  
    23    10    30 ar  
    24    10    39 1   
    25    11    20 1   
    26    11    22 ar  
    27    12    15 1   
    28    12    21 ar  
    29    13    20 ar  
    30    13    21 ar  
    31    13    40 1   
    32    14    15 2   
    33    15    16 2   
    34    17    18 1   
    35    17    41 1   
    36    17    42 1   
    37    18    43 1   
    38    19    20 ar  
    39    19    44 1   
    40    21    45 1   
    41    22    23 ar  
    42    22    46 1   
    43    23    24 ar  
    44    23    47 1   
    45    24    25 1   
    46    24    30 ar  
    47    25    26 1   
    48    25    48 1   
    49    25    49 1   
    50    26    27 1   
    51    26    50 1   
    52    26    51 1   
    53    27    28 1   
    54    27    52 1   
    55    27    53 1   
    56    28    29 1   
    57    28    54 1   
    58    28    55 1   
    59    29    56 1   
    60    29    57 1   
    61    29    58 1   
    62    31    59 1   
@<TRIPOS>SUBSTRUCTURE
     1 A59         1 TEMP              0 ****  ****    0 ROOT
