@<TRIPOS>MOLECULE
A59
   60    62     1     0     0
SMALL
No Charge or Current Charge


@<TRIPOS>ATOM
      1 C12          3.4330     2.0660    -0.3140 ca         1 A59      -0.014500
      2 C13         -3.4480    -0.1950    -1.9110 ce         1 A59      -0.116200
      3 C14         -3.5650    -1.5580    -1.8940 cf         1 A59      -0.288800
      4 C15         -1.8420    -4.5090     0.6120 ca         1 A59      -0.166000
      5 C17         -3.1940    -3.9540    -1.2990 ca         1 A59      -0.154000
      6 C18         -2.9620    -2.5900    -1.0260 ca         1 A59       0.393800
      7 C19         -1.6610    -3.1310     0.8210 ca         1 A59       0.336900
      8 C20          6.1500     0.3370     1.3170 c3         1 A59      -0.309400
      9 N1          -2.2090    -2.1890     0.0220 nb         1 A59      -0.661000
     10 C5          -1.2010     0.5360    -1.1020 ca         1 A59      -0.064000
     11 C6          -0.3370     1.3650    -0.3470 cp         1 A59      -0.063000
     12 C7           3.9650     0.7650    -0.4120 ca         1 A59      -0.273500
     13 C9           1.7030    -0.1400    -0.4630 ca         1 A59      -0.124500
     14 O2           6.3990     1.7500    -0.8860 o          1 A59      -0.524500
     15 S1           5.7530     0.5140    -0.4260 sy         1 A59       1.050500
     16 O1           6.0430    -0.7780    -1.0610 o          1 A59      -0.524500
     17 C21          7.6470     0.1110     1.5290 c3         1 A59       0.192600
     18 O3           7.8810    -0.0190     2.9320 oh         1 A59      -0.653000
     19 C11          2.0410     2.2560    -0.2940 ca         1 A59      -0.124500
     20 C10          1.1470     1.1600    -0.3690 cp         1 A59       0.036000
     21 C8           3.0940    -0.3400    -0.4830 ca         1 A59      -0.014500
     22 C1          -0.9250     2.3880     0.4340 ca         1 A59      -0.087000
     23 C23         -2.3170     2.5690     0.4610 ca         1 A59      -0.112000
     24 C3          -3.1650     1.7340    -0.2930 ca         1 A59      -0.047300
     25 C24         -4.6770     1.9450    -0.2150 c3         1 A59      -0.032100
     26 C25         -5.3600     0.9300     0.7270 c3         1 A59      -0.077400
     27 C26         -6.8910     1.1150     0.8140 c3         1 A59      -0.075400
     28 C27         -7.5700     0.0950     1.7540 c3         1 A59      -0.075400
     29 C28         -9.0970     0.2780     1.8410 c3         1 A59      -0.089100
     30 C4          -2.5980     0.7030    -1.0780 ca         1 A59      -0.039800
     31 C16         -2.6260    -4.9350    -0.4700 ca         1 A59      -0.073000
     32 H1           4.0900     2.9320    -0.2560 ha         1 A59       0.136500
     33 H2          -4.0480     0.3450    -2.6450 ha         1 A59       0.178000
     34 H3          -4.2500    -1.9820    -2.6280 ha         1 A59       0.178000
     35 H5          -3.8060    -4.2480    -2.1470 ha         1 A59       0.123000
     36 H6          -1.0580    -2.7710     1.6540 h4         1 A59       0.020100
     37 H7           5.8230     1.2540     1.8170 h1         1 A59       0.106700
     38 H8           5.5740    -0.5140     1.6940 h1         1 A59       0.106700
     39 H9          -0.7820    -0.2490    -1.7260 ha         1 A59       0.117000
     40 H10          1.0490    -1.0070    -0.5050 ha         1 A59       0.124000
     41 H11          7.9670    -0.7990     1.0010 h1         1 A59       0.037200
     42 H12          8.2150     0.9610     1.1230 h1         1 A59       0.037200
     43 H13          8.8460    -0.1630     3.0490 ho         1 A59       0.446000
     44 H14          1.6520     3.2690    -0.2320 ha         1 A59       0.124000
     45 H15          3.4860    -1.3540    -0.5500 ha         1 A59       0.136500
     46 H16         -0.2990     3.0380     1.0410 ha         1 A59       0.114000
     47 H17         -2.7390     3.3570     1.0800 ha         1 A59       0.114000
     48 H18         -4.8990     2.9590     0.1390 hc         1 A59       0.044700
     49 H19         -5.1270     1.8770    -1.2130 hc         1 A59       0.044700
     50 H20         -5.1410    -0.0890     0.3840 hc         1 A59       0.050200
     51 H21         -4.9260     1.0260     1.7300 hc         1 A59       0.050200
     52 H22         -7.1120     2.1310     1.1650 hc         1 A59       0.034700
     53 H23         -7.3220     1.0220    -0.1900 hc         1 A59       0.034700
     54 H24         -7.3520    -0.9220     1.4050 hc         1 A59       0.038700
     55 H25         -7.1420     0.1870     2.7600 hc         1 A59       0.038700
     56 H26         -9.5340    -0.4660     2.5170 hc         1 A59       0.030700
     57 H27         -9.3480     1.2760     2.2210 hc         1 A59       0.030700
     58 H28         -9.5590     0.1570     0.8530 hc         1 A59       0.030700
     59 H29         -2.7890    -5.9940    -0.6620 ha         1 A59       0.120000
     60 H4          -1.3790    -5.2270     1.2830 ha         1 A59       0.125000
@<TRIPOS>BOND
     1     1    12 ar  
     2     1    19 ar  
     3     1    32 1   
     4     2     3 2   
     5     2    30 1   
     6     2    33 1   
     7     3     6 1   
     8     3    34 1   
     9     4     7 ar  
    10     4    31 ar  
    11     4    60 1   
    12     5     6 ar  
    13     5    31 ar  
    14     5    35 1   
    15     6     9 ar  
    16     7     9 ar  
    17     7    36 1   
    18     8    15 1   
    19     8    17 1   
    20     8    37 1   
    21     8    38 1   
    22    10    11 ar  
    23    10    30 ar  
    24    10    39 1   
    25    11    20 1   
    26    11    22 ar  
    27    12    15 1   
    28    12    21 ar  
    29    13    20 ar  
    30    13    21 ar  
    31    13    40 1   
    32    14    15 2   
    33    15    16 2   
    34    17    18 1   
    35    17    41 1   
    36    17    42 1   
    37    18    43 1   
    38    19    20 ar  
    39    19    44 1   
    40    21    45 1   
    41    22    23 ar  
    42    22    46 1   
    43    23    24 ar  
    44    23    47 1   
    45    24    25 1   
    46    24    30 ar  
    47    25    26 1   
    48    25    48 1   
    49    25    49 1   
    50    26    27 1   
    51    26    50 1   
    52    26    51 1   
    53    27    28 1   
    54    27    52 1   
    55    27    53 1   
    56    28    29 1   
    57    28    54 1   
    58    28    55 1   
    59    29    56 1   
    60    29    57 1   
    61    29    58 1   
    62    31    59 1   
@<TRIPOS>SUBSTRUCTURE
     1 A59         1 TEMP              0 ****  ****    0 ROOT
