@<TRIPOS>MOLECULE
A5A
   47    49     1     0     0
SMALL
No Charge or Current Charge


@<TRIPOS>ATOM
      1 N            2.3830    -1.7560     1.0530 n8         1 A5A      -1.009200
      2 CA           2.7640    -0.5120     1.7940 c3         1 A5A       0.086500
      3 CB           4.1270     0.0010     1.2820 c3         1 A5A      -0.128100
      4 C            1.6710     0.6210     1.8440 c          1 A5A       0.627100
      5 O            1.6620     1.5770     1.0820 o          1 A5A      -0.511100
      6 N3S          0.7570     0.4570     2.8350 ns         1 A5A      -0.626300
      7 S           -0.4870     1.4690     3.2550 s6         1 A5A       1.438500
      8 O1S         -1.1970     0.8420     4.3730 o          1 A5A      -0.534000
      9 O2S          0.0270     2.8390     3.3560 o          1 A5A      -0.534000
     10 O5          -1.4070     1.3490     1.8990 os         1 A5A      -0.538700
     11 C5          -1.9780     0.0620     1.5990 c3         1 A5A       0.183600
     12 C4          -2.9230     0.2230     0.3710 c5         1 A5A       0.171300
     13 O4          -2.1660     0.5840    -0.8120 os         1 A5A      -0.421000
     14 C3          -3.6670    -1.0820    -0.0540 c5         1 A5A       0.107300
     15 O3          -4.7720    -0.8360    -0.9360 oh         1 A5A      -0.699000
     16 C2          -2.5170    -1.8090    -0.8080 c5         1 A5A       0.081300
     17 O2          -3.0250    -2.8310    -1.6880 oh         1 A5A      -0.690000
     18 C1          -1.8170    -0.6110    -1.5570 c5         1 A5A       0.314300
     19 N9          -0.3610    -0.6950    -1.7260 na         1 A5A      -0.286300
     20 C8           0.3850    -1.8800    -1.7220 cc         1 A5A       0.420700
     21 N7           1.6870    -1.6460    -1.9780 nd         1 A5A      -0.563100
     22 C7           1.7330    -0.2620    -2.1690 ca         1 A5A      -0.098600
     23 C6           2.8300     0.5590    -2.5000 ca         1 A5A       0.450900
     24 N6           4.0810     0.0660    -2.7040 nv         1 A5A      -1.066900
     25 N1           2.6870     1.8850    -2.6500 nb         1 A5A      -0.302000
     26 C10          1.4330     2.3690    -2.4760 ca         1 A5A       0.182900
     27 N3           0.3230     1.6550    -2.1750 nb         1 A5A      -0.216000
     28 C9           0.5030     0.3280    -2.0180 ca         1 A5A       0.145500
     29 H            2.2520    -1.5350     0.0530 hn         1 A5A       0.419500
     30 HN2          3.1770    -2.4070     1.0450 hn         1 A5A       0.419500
     31 HA           2.9220    -0.8110     2.8400 h1         1 A5A       0.060700
     32 HB1          4.8900    -0.7850     1.3370 hc         1 A5A       0.052033
     33 HB2          4.0540     0.3410     0.2430 hc         1 A5A       0.052033
     34 HB3          4.4700     0.8460     1.8920 hc         1 A5A       0.052033
     35 H3S          0.7900    -0.3580     3.4210 hn         1 A5A       0.344500
     36 H5'1        -1.1950    -0.6750     1.3760 h1         1 A5A       0.052200
     37 H5'2        -2.5730    -0.3120     2.4430 h1         1 A5A       0.052200
     38 H4          -3.6370     1.0250     0.6020 h1         1 A5A       0.110700
     39 H3          -4.0000    -1.6570     0.8210 h1         1 A5A       0.052700
     40 H3T         -4.7050    -1.5490    -1.6190 ho         1 A5A       0.525000
     41 H2          -1.8220    -2.2550    -0.0830 h1         1 A5A       0.049700
     42 HO'2        -3.0880    -3.6720    -1.1730 ho         1 A5A       0.515000
     43 H1          -2.2300    -0.5250    -2.5700 h2         1 A5A       0.123700
     44 H8          -0.0590    -2.8510    -1.5400 h5         1 A5A       0.074800
     45 H61          4.8670     0.7100    -2.6830 hn         1 A5A       0.505000
     46 H62          4.2570    -0.8980    -2.4350 hn         1 A5A       0.505000
     47 H7           1.3040     3.4430    -2.5990 h5         1 A5A       0.046100
@<TRIPOS>BOND
     1     1     2 1   
     2     1    29 1   
     3     1    30 1   
     4     2     3 1   
     5     2     4 1   
     6     2    31 1   
     7     3    32 1   
     8     3    33 1   
     9     3    34 1   
    10     4     5 2   
    11     4     6 1   
    12     6     7 1   
    13     6    35 1   
    14     7     8 2   
    15     7     9 2   
    16     7    10 1   
    17    10    11 1   
    18    11    12 1   
    19    11    36 1   
    20    11    37 1   
    21    12    13 1   
    22    12    14 1   
    23    12    38 1   
    24    13    18 1   
    25    14    15 1   
    26    14    16 1   
    27    14    39 1   
    28    15    40 1   
    29    16    17 1   
    30    16    18 1   
    31    16    41 1   
    32    17    42 1   
    33    18    19 1   
    34    18    43 1   
    35    19    20 1   
    36    19    28 1   
    37    20    21 2   
    38    20    44 1   
    39    21    22 1   
    40    22    23 ar  
    41    22    28 ar  
    42    23    24 1   
    43    23    25 ar  
    44    24    45 1   
    45    24    46 1   
    46    25    26 ar  
    47    26    27 ar  
    48    26    47 1   
    49    27    28 ar  
@<TRIPOS>SUBSTRUCTURE
     1 A5A         1 TEMP              0 ****  ****    0 ROOT
