@<TRIPOS>MOLECULE
A5A
   47    49     1     0     0
SMALL
abcg2


@<TRIPOS>ATOM
      1 N            2.6890    -1.6720     1.3390 n8         1 A5A      -1.009200
      2 CA           2.6070    -1.1080     2.6730 c3         1 A5A       0.086500
      3 CB           3.9230    -0.5740     3.2390 c3         1 A5A      -0.128100
      4 C            1.5970     0.0240     2.6250 c          1 A5A       0.627100
      5 O            1.6540     0.9310     1.8320 o          1 A5A      -0.511100
      6 N3S          0.5930    -0.0610     3.5670 ns         1 A5A      -0.626300
      7 S           -0.5880     1.0950     3.7660 s6         1 A5A       1.438500
      8 O1S         -1.4640     0.5640     4.7790 o          1 A5A      -0.534000
      9 O2S         -0.0050     2.4010     3.8920 o          1 A5A      -0.534000
     10 O5          -1.3130     1.1200     2.3580 os         1 A5A      -0.538700
     11 C5          -1.9690    -0.0670     1.8790 c3         1 A5A       0.183600
     12 C4          -2.6230     0.3000     0.5640 c5         1 A5A       0.171300
     13 O4          -1.6540     0.7970    -0.3550 os         1 A5A      -0.421000
     14 C3          -3.2640    -0.9160    -0.1010 c5         1 A5A       0.107300
     15 O3          -4.3610    -0.4770    -0.8560 oh         1 A5A      -0.699000
     16 C2          -2.1260    -1.3920    -1.0090 c5         1 A5A       0.081300
     17 O2          -2.5280    -2.1390    -2.1150 oh         1 A5A      -0.690000
     18 C1          -1.5430    -0.0570    -1.4650 c5         1 A5A       0.314300
     19 N9          -0.1740    -0.1190    -1.8920 na         1 A5A      -0.286300
     20 C8           0.8990    -0.6130    -1.1960 cc         1 A5A       0.420700
     21 N7           2.0270    -0.4660    -1.8210 nd         1 A5A      -0.563100
     22 C7           1.6930     0.1640    -2.9930 ca         1 A5A      -0.098600
     23 C6           2.4510     0.6020    -4.0940 ca         1 A5A       0.450900
     24 N6           3.7720     0.4380    -4.1700 nv         1 A5A      -1.066900
     25 N1           1.8040     1.1990    -5.1010 nb         1 A5A      -0.302000
     26 C10          0.4850     1.3550    -5.0220 ca         1 A5A       0.182900
     27 N3          -0.3290     0.9880    -4.0470 nb         1 A5A      -0.216000
     28 C9           0.3290     0.3950    -3.0550 ca         1 A5A       0.145500
     29 H            3.1470    -1.0230     0.7090 hn         1 A5A       0.419500
     30 HN2          3.2690    -2.5010     1.3640 hn         1 A5A       0.419500
     31 HA           2.2360    -1.8930     3.3370 h1         1 A5A       0.060700
     32 HB1          4.6540    -1.3810     3.2850 hc         1 A5A       0.052033
     33 HB2          4.3260     0.2160     2.6040 hc         1 A5A       0.052033
     34 HB3          3.8020    -0.1750     4.2470 hc         1 A5A       0.052033
     35 H3S          0.5500    -0.8510     4.2010 hn         1 A5A       0.344500
     36 H5'1        -1.2350    -0.8700     1.7600 h1         1 A5A       0.052200
     37 H5'2        -2.7350    -0.3920     2.5860 h1         1 A5A       0.052200
     38 H4          -3.3720     1.0760     0.7460 h1         1 A5A       0.110700
     39 H3          -3.5520    -1.6820     0.6310 h1         1 A5A       0.052700
     40 H3T         -4.5510    -1.1480    -1.5230 ho         1 A5A       0.525000
     41 H2          -1.3930    -1.9350    -0.3990 h1         1 A5A       0.049700
     42 HO'2        -2.6100    -3.0620    -1.8570 ho         1 A5A       0.515000
     43 H1          -2.1100     0.3260    -2.3200 h2         1 A5A       0.123700
     44 H8           0.8030    -1.0790    -0.2260 h5         1 A5A       0.074800
     45 H61          4.2850     0.8090    -4.9500 hn         1 A5A       0.505000
     46 H62          4.2900     0.0460    -3.4030 hn         1 A5A       0.505000
     47 H7           0.0220     1.8480    -5.8710 h5         1 A5A       0.046100
@<TRIPOS>BOND
     1     1     2 1   
     2     1    29 1   
     3     1    30 1   
     4     2     3 1   
     5     2     4 1   
     6     2    31 1   
     7     3    32 1   
     8     3    33 1   
     9     3    34 1   
    10     4     5 2   
    11     4     6 1   
    12     6     7 1   
    13     6    35 1   
    14     7     8 2   
    15     7     9 2   
    16     7    10 1   
    17    10    11 1   
    18    11    12 1   
    19    11    36 1   
    20    11    37 1   
    21    12    13 1   
    22    12    14 1   
    23    12    38 1   
    24    13    18 1   
    25    14    15 1   
    26    14    16 1   
    27    14    39 1   
    28    15    40 1   
    29    16    17 1   
    30    16    18 1   
    31    16    41 1   
    32    17    42 1   
    33    18    19 1   
    34    18    43 1   
    35    19    20 1   
    36    19    28 1   
    37    20    21 2   
    38    20    44 1   
    39    21    22 1   
    40    22    23 ar  
    41    22    28 ar  
    42    23    24 1   
    43    23    25 ar  
    44    24    45 1   
    45    24    46 1   
    46    25    26 ar  
    47    26    27 ar  
    48    26    47 1   
    49    27    28 ar  
@<TRIPOS>SUBSTRUCTURE
     1 A5A         1 TEMP              0 ****  ****    0 ROOT
