@<TRIPOS>MOLECULE
A5B
   56    60     1     0     0
SMALL
No Charge or Current Charge


@<TRIPOS>ATOM
      1 C26         -6.7670    -0.3690     3.3570 c3         1 A5B       0.149900
      2 O2          -7.2730    -0.2770     2.0150 os         1 A5B      -0.284100
      3 C24         -6.4610    -0.0020     0.9310 ca         1 A5B       0.180100
      4 C25         -5.0680     0.1890     1.0770 ca         1 A5B      -0.287000
      5 C23         -7.0410     0.0650    -0.3510 ca         1 A5B      -0.160600
      6 C27         -8.5180    -0.1270    -0.5410 c          1 A5B       0.718600
      7 O4          -9.2830     0.6600     0.0010 o          1 A5B      -0.713500
      8 O3          -8.8830    -0.9990    -1.3160 o          1 A5B      -0.713500
      9 C22         -6.2260     0.3150    -1.4730 ca         1 A5B      -0.053000
     10 C21         -4.8440     0.5010    -1.3150 ca         1 A5B      -0.181000
     11 C20         -4.2600     0.4280    -0.0400 ca         1 A5B       0.294000
     12 N4          -2.8970     0.6190     0.1780 nu         1 A5B      -0.906900
     13 C12         -1.7480     0.4730    -0.5900 ca         1 A5B       0.395900
     14 N3          -0.6250     0.9080     0.0030 nb         1 A5B      -0.267000
     15 N2          -1.8400    -0.0880    -1.8100 nb         1 A5B      -0.208000
     16 C11         -0.6930    -0.2090    -2.5020 ca         1 A5B       0.167900
     17 C10          0.5350     0.2230    -1.9720 ca         1 A5B      -0.275300
     18 C9           1.8100     0.0990    -2.7680 c3         1 A5B       0.174100
     19 N1           2.6700    -0.8750    -2.1110 n2         1 A5B      -0.549900
     20 C13          0.5340     0.7800    -0.6750 cp         1 A5B       0.221500
     21 C14          1.7840     1.2920    -0.0250 cp         1 A5B      -0.117500
     22 C19          1.7180     2.4580     0.7860 ca         1 A5B      -0.067000
     23 C18          2.8570     2.9760     1.4170 ca         1 A5B      -0.108000
     24 C17          4.0910     2.3400     1.2520 ca         1 A5B       0.119000
     25 Cl1          5.5260     2.9890     2.0360 cl         1 A5B      -0.211000
     26 C16          4.1870     1.1840     0.4660 ca         1 A5B      -0.091000
     27 C15          3.0490     0.6330    -0.1720 ca         1 A5B      -0.130900
     28 C8           3.2560    -0.6300    -0.9780 ce         1 A5B       0.532500
     29 C7           4.2310    -1.6260    -0.4600 ca         1 A5B      -0.216900
     30 C6           5.3240    -2.0360    -1.2460 ca         1 A5B       0.237000
     31 F1           5.5350    -1.4980    -2.4680 f          1 A5B      -0.167000
     32 C5           6.2400    -2.9800    -0.7600 ca         1 A5B      -0.203000
     33 C4           6.0700    -3.5330     0.5170 ca         1 A5B      -0.039000
     34 C3           4.9780    -3.1380     1.3050 ca         1 A5B      -0.224000
     35 C2           4.0530    -2.1860     0.8200 ca         1 A5B       0.193100
     36 O1           2.9560    -1.7940     1.5610 os         1 A5B      -0.321100
     37 C1           2.7020    -2.2840     2.8890 c3         1 A5B       0.145900
     38 H1          -7.5840    -0.5910     4.0540 h1         1 A5B       0.022700
     39 H2          -6.0230    -1.1710     3.4370 h1         1 A5B       0.022700
     40 H3          -6.3040     0.5770     3.6640 h1         1 A5B       0.022700
     41 H4          -4.6010     0.1400     2.0550 ha         1 A5B       0.090000
     42 H6          -6.6700     0.3740    -2.4650 ha         1 A5B       0.138000
     43 H7          -4.2420     0.7210    -2.1910 ha         1 A5B       0.129000
     44 H8          -2.6760     0.8450     1.1460 hn         1 A5B       0.498000
     45 H9          -0.7640    -0.6530    -3.4940 h4         1 A5B       0.023100
     46 H10          1.5790    -0.2250    -3.7920 h1         1 A5B       0.058700
     47 H11          2.2990     1.0800    -2.8390 h1         1 A5B       0.058700
     48 H12          0.7700     2.9750     0.9180 ha         1 A5B       0.140000
     49 H13          2.7840     3.8720     2.0290 ha         1 A5B       0.129000
     50 H14          5.1610     0.7140     0.3560 ha         1 A5B       0.132000
     51 H15          7.0850    -3.2780    -1.3750 ha         1 A5B       0.132000
     52 H16          6.7800    -4.2660     0.8940 ha         1 A5B       0.112000
     53 H17          4.8640    -3.5850     2.2880 ha         1 A5B       0.123000
     54 H18          1.7870    -1.8330     3.2900 h1         1 A5B       0.045367
     55 H19          2.5710    -3.3730     2.8850 h1         1 A5B       0.045367
     56 H20          3.5300    -2.0290     3.5630 h1         1 A5B       0.045367
@<TRIPOS>BOND
     1     1     2 1   
     2     1    38 1   
     3     1    39 1   
     4     1    40 1   
     5     2     3 1   
     6     3     4 ar  
     7     3     5 ar  
     8     4    11 ar  
     9     4    41 1   
    10     5     6 1   
    11     5     9 ar  
    12     6     7 1   
    13     6     8 1   
    14     9    10 ar  
    15     9    42 1   
    16    10    11 ar  
    17    10    43 1   
    18    11    12 1   
    19    12    13 1   
    20    12    44 1   
    21    13    14 ar  
    22    13    15 ar  
    23    14    20 ar  
    24    15    16 ar  
    25    16    17 ar  
    26    16    45 1   
    27    17    18 1   
    28    17    20 ar  
    29    18    19 1   
    30    18    46 1   
    31    18    47 1   
    32    19    28 2   
    33    20    21 1   
    34    21    22 ar  
    35    21    27 ar  
    36    22    23 ar  
    37    22    48 1   
    38    23    24 ar  
    39    23    49 1   
    40    24    25 1   
    41    24    26 ar  
    42    26    27 ar  
    43    26    50 1   
    44    27    28 1   
    45    28    29 1   
    46    29    30 ar  
    47    29    35 ar  
    48    30    31 1   
    49    30    32 ar  
    50    32    33 ar  
    51    32    51 1   
    52    33    34 ar  
    53    33    52 1   
    54    34    35 ar  
    55    34    53 1   
    56    35    36 1   
    57    36    37 1   
    58    37    54 1   
    59    37    55 1   
    60    37    56 1   
@<TRIPOS>SUBSTRUCTURE
     1 A5B         1 TEMP              0 ****  ****    0 ROOT
