@<TRIPOS>MOLECULE
A5B
   56    60     1     0     0
SMALL
bcc


@<TRIPOS>ATOM
      1 C26         -6.7300     0.8040     3.2160 c3         1 A5B       0.126700
      2 O2          -7.2380     0.3490     1.9800 os         1 A5B      -0.260900
      3 C24         -6.3900     0.1340     0.9600 ca         1 A5B       0.180100
      4 C25         -5.0240     0.3630     1.0920 ca         1 A5B      -0.305000
      5 C23         -6.9130    -0.3560    -0.2550 ca         1 A5B      -0.160600
      6 C27         -8.3890    -0.6210    -0.5340 c          1 A5B       0.929200
      7 O4          -9.2320    -0.1350     0.2410 o          1 A5B      -0.818800
      8 O3          -8.6340    -1.3040    -1.5510 o          1 A5B      -0.818800
      9 C22         -5.9960    -0.5960    -1.2700 ca         1 A5B      -0.071000
     10 C21         -4.6320    -0.3650    -1.1650 ca         1 A5B      -0.199000
     11 C20         -4.1340     0.1270     0.0390 ca         1 A5B       0.155600
     12 N4          -2.7990     0.4080     0.3040 nu         1 A5B      -0.713300
     13 C12         -1.6880     0.3670    -0.4810 ca         1 A5B       0.921900
     14 N3          -0.5720     0.7570     0.1370 nb         1 A5B      -0.793000
     15 N2          -1.7680    -0.0360    -1.7450 nb         1 A5B      -0.734000
     16 C11         -0.6380    -0.0240    -2.4350 ca         1 A5B       0.496200
     17 C10          0.5760     0.3770    -1.9070 ca         1 A5B      -0.405900
     18 C9           1.8470     0.4040    -2.6890 c3         1 A5B       0.174100
     19 N1           2.7520    -0.6210    -2.2000 n2         1 A5B      -0.549900
     20 C13          0.5510     0.7560    -0.5620 cp         1 A5B       0.549800
     21 C14          1.7680     1.2260     0.1190 cp         1 A5B      -0.117500
     22 C19          1.6450     2.2410     1.0690 ca         1 A5B      -0.085000
     23 C18          2.7440     2.7410     1.7390 ca         1 A5B      -0.126000
     24 C17          3.9910     2.1930     1.4760 ca         1 A5B       0.027400
     25 CL1          5.3810     2.8050     2.3000 cl         1 A5B      -0.119400
     26 C16          4.1380     1.1580     0.5740 ca         1 A5B      -0.109000
     27 C15          3.0340     0.6730    -0.1260 ca         1 A5B      -0.130900
     28 C8           3.2640    -0.4700    -1.0510 ce         1 A5B       0.532500
     29 C7           4.2090    -1.5100    -0.5710 ca         1 A5B      -0.216900
     30 C6           5.3810    -1.8010    -1.2450 ca         1 A5B       0.201900
     31 F1           5.6710    -1.1020    -2.3500 f          1 A5B      -0.131900
     32 C5           6.2840    -2.7540    -0.8100 ca         1 A5B      -0.221000
     33 C4           5.9810    -3.4460     0.3510 ca         1 A5B      -0.057000
     34 C3           4.8120    -3.1990     1.0610 ca         1 A5B      -0.242000
     35 C2           3.9250    -2.2320     0.5980 ca         1 A5B       0.193100
     36 O1           2.7610    -1.9220     1.1840 os         1 A5B      -0.297900
     37 C1           2.4260    -2.5390     2.4130 c3         1 A5B       0.122700
     38 H1          -7.5840     0.8940     3.8830 h1         1 A5B       0.022700
     39 H2          -6.0160     0.1020     3.6550 h1         1 A5B       0.022700
     40 H3          -6.2500     1.7840     3.1320 h1         1 A5B       0.022700
     41 H4          -4.6210     0.7360     2.0250 ha         1 A5B       0.108000
     42 H6          -6.3760    -0.9870    -2.2040 ha         1 A5B       0.156000
     43 H7          -3.9800    -0.5650    -1.9980 ha         1 A5B       0.147000
     44 H8          -2.6040     0.7370     1.2370 hn         1 A5B       0.442800
     45 H9          -0.7020    -0.3440    -3.4700 h4         1 A5B       0.023100
     46 H10          1.6400     0.2090    -3.7410 h1         1 A5B       0.058700
     47 H11          2.3070     1.3980    -2.6290 h1         1 A5B       0.058700
     48 H12          0.6680     2.6570     1.2740 ha         1 A5B       0.158000
     49 H13          2.6320     3.5440     2.4550 ha         1 A5B       0.147000
     50 H14          5.1160     0.7260     0.4100 ha         1 A5B       0.150000
     51 H15          7.1960    -2.9410    -1.3590 ha         1 A5B       0.150000
     52 H16          6.6680    -4.1970     0.7160 ha         1 A5B       0.130000
     53 H17          4.6100    -3.7640     1.9590 ha         1 A5B       0.141000
     54 H18          1.4770    -2.1090     2.7200 h1         1 A5B       0.045367
     55 H19          2.3090    -3.6200     2.3070 h1         1 A5B       0.045367
     56 H20          3.1730    -2.3350     3.1840 h1         1 A5B       0.045367
@<TRIPOS>BOND
     1     1     2 1   
     2     1    38 1   
     3     1    39 1   
     4     1    40 1   
     5     2     3 1   
     6     3     4 ar  
     7     3     5 ar  
     8     4    11 ar  
     9     4    41 1   
    10     5     6 1   
    11     5     9 ar  
    12     6     7 1   
    13     6     8 1   
    14     9    10 ar  
    15     9    42 1   
    16    10    11 ar  
    17    10    43 1   
    18    11    12 1   
    19    12    13 1   
    20    12    44 1   
    21    13    14 ar  
    22    13    15 ar  
    23    14    20 ar  
    24    15    16 ar  
    25    16    17 ar  
    26    16    45 1   
    27    17    18 1   
    28    17    20 ar  
    29    18    19 1   
    30    18    46 1   
    31    18    47 1   
    32    19    28 2   
    33    20    21 1   
    34    21    22 ar  
    35    21    27 ar  
    36    22    23 ar  
    37    22    48 1   
    38    23    24 ar  
    39    23    49 1   
    40    24    25 1   
    41    24    26 ar  
    42    26    27 ar  
    43    26    50 1   
    44    27    28 1   
    45    28    29 1   
    46    29    30 ar  
    47    29    35 ar  
    48    30    31 1   
    49    30    32 ar  
    50    32    33 ar  
    51    32    51 1   
    52    33    34 ar  
    53    33    52 1   
    54    34    35 ar  
    55    34    53 1   
    56    35    36 1   
    57    36    37 1   
    58    37    54 1   
    59    37    55 1   
    60    37    56 1   
@<TRIPOS>SUBSTRUCTURE
     1 A5B         1 TEMP              0 ****  ****    0 ROOT
