@<TRIPOS>MOLECULE
A5C
   24    24     1     0     0
SMALL
bcc


@<TRIPOS>ATOM
      1 C1           2.7040     0.3990     0.5390 c3         1 A5C       0.109400
      2 C2           1.5790    -0.3140    -0.1950 c3         1 A5C       0.134100
      3 C4          -0.7820    -1.2920     0.1060 c5         1 A5C       0.136100
      4 C5          -1.6680    -0.2130    -0.5030 c5         1 A5C       0.079100
      5 O1           3.8480     0.3990    -0.2810 oh         1 A5C      -0.587800
      6 O2           1.2710     0.3100    -1.4190 oh         1 A5C      -0.584800
      7 O4          -1.4340    -1.9600     1.1610 oh         1 A5C      -0.597800
      8 C6          -1.4990     0.9490     0.4760 c5         1 A5C       0.307900
      9 O5          -2.9860    -0.6670    -0.6370 oh         1 A5C      -0.596800
     10 C40          0.3570    -0.4690     0.7090 c5         1 A5C       0.112100
     11 O3          -0.1980     0.8100     1.0080 os         1 A5C      -0.444600
     12 H11C         2.3870     1.4200     0.7920 h1         1 A5C       0.028700
     13 H12C         2.8860    -0.1220     1.4890 h1         1 A5C       0.028700
     14 H2           1.9210    -1.3240    -0.4470 h1         1 A5C       0.086700
     15 H1           4.5270     0.9200     0.1550 ho         1 A5C       0.404000
     16 HA           1.0260     1.2260    -1.2400 ho         1 A5C       0.414000
     17 H40          0.6860    -0.9460     1.6400 h1         1 A5C       0.087700
     18 H4          -0.4170    -2.0000    -0.6480 h1         1 A5C       0.070700
     19 H5          -1.2440     0.0830    -1.4700 h1         1 A5C       0.078700
     20 HB          -2.2840    -2.2790     0.8380 ho         1 A5C       0.429000
     21 H6          -2.2290     0.8730     1.2940 h2         1 A5C       0.056700
     22 H5L         -3.4910    -0.0160    -1.1340 ho         1 A5C       0.426000
     23 O6          -1.6350     2.1540    -0.1910 oh         1 A5C      -0.600800
     24 HC          -1.8050     2.8570     0.4450 ho         1 A5C       0.423000
@<TRIPOS>BOND
     1     1     2 1   
     2     1     5 1   
     3     1    12 1   
     4     1    13 1   
     5     2     6 1   
     6     2    10 1   
     7     2    14 1   
     8     3     4 1   
     9     3     7 1   
    10     3    10 1   
    11     3    18 1   
    12     4     8 1   
    13     4     9 1   
    14     4    19 1   
    15     5    15 1   
    16     6    16 1   
    17     7    20 1   
    18     8    11 1   
    19     8    21 1   
    20     8    23 1   
    21     9    22 1   
    22    10    11 1   
    23    10    17 1   
    24    23    24 1   
@<TRIPOS>SUBSTRUCTURE
     1 A5C         1 TEMP              0 ****  ****    0 ROOT
