@<TRIPOS>MOLECULE
A5C
   24    24     1     0     0
SMALL
No Charge or Current Charge


@<TRIPOS>ATOM
      1 C1           2.7760     0.4910     0.5410 c3         1 A5C       0.132600
      2 C2           1.6880    -0.3900    -0.1470 c3         1 A5C       0.157300
      3 C4          -0.7970    -1.2950     0.0100 c5         1 A5C       0.159300
      4 C5          -1.7800    -0.2320    -0.5590 c5         1 A5C       0.102300
      5 O1           4.0550     0.3450    -0.1010 oh         1 A5C      -0.650000
      6 O2           1.4870     0.0250    -1.5190 oh         1 A5C      -0.707000
      7 O4          -1.4810    -2.0730     1.0010 oh         1 A5C      -0.720000
      8 C6          -1.6150     0.8740     0.5310 c5         1 A5C       0.354300
      9 O5          -3.1260    -0.7420    -0.7010 oh         1 A5C      -0.719000
     10 C40          0.3330    -0.3790     0.6220 c5         1 A5C       0.135300
     11 O3          -0.2020     0.9770     0.6570 os         1 A5C      -0.491000
     12 H11C         2.4590     1.5420     0.5240 h1         1 A5C       0.028700
     13 H12C         2.8540     0.1910     1.5950 h1         1 A5C       0.028700
     14 H2           2.0530    -1.4270    -0.1260 h1         1 A5C       0.086700
     15 H1           4.6820     0.9450     0.3610 ho         1 A5C       0.443000
     16 HA           1.2290     0.9750    -1.4800 ho         1 A5C       0.513000
     17 H40          0.5350    -0.6940     1.6560 h1         1 A5C       0.087700
     18 H4          -0.4090    -1.9420    -0.7900 h1         1 A5C       0.070700
     19 H5          -1.4100     0.1440    -1.5240 h1         1 A5C       0.078700
     20 HB          -2.4250    -2.0320     0.6990 ho         1 A5C       0.528000
     21 H6          -2.0540     0.5590     1.4880 h2         1 A5C       0.056700
     22 H5L         -3.6940     0.0320    -0.9400 ho         1 A5C       0.525000
     23 O6          -2.1240     2.1290     0.1330 oh         1 A5C      -0.723000
     24 HC          -1.5150     2.7740     0.5560 ho         1 A5C       0.522000
@<TRIPOS>BOND
     1     1     2 1   
     2     1     5 1   
     3     1    12 1   
     4     1    13 1   
     5     2     6 1   
     6     2    10 1   
     7     2    14 1   
     8     3     4 1   
     9     3     7 1   
    10     3    10 1   
    11     3    18 1   
    12     4     8 1   
    13     4     9 1   
    14     4    19 1   
    15     5    15 1   
    16     6    16 1   
    17     7    20 1   
    18     8    11 1   
    19     8    21 1   
    20     8    23 1   
    21     9    22 1   
    22    10    11 1   
    23    10    17 1   
    24    23    24 1   
@<TRIPOS>SUBSTRUCTURE
     1 A5C         1 TEMP              0 ****  ****    0 ROOT
