@<TRIPOS>MOLECULE
A5D
   46    49     1     0     0
SMALL
No Charge or Current Charge


@<TRIPOS>ATOM
      1 N1          -5.1870     1.7800    -1.3870 nb         1 A5D      -0.303000
      2 C2          -5.1660     0.4290    -1.4760 ca         1 A5D       0.183900
      3 N3          -4.2960    -0.4080    -0.8630 nb         1 A5D      -0.217000
      4 C4          -3.3590     0.1760    -0.0880 ca         1 A5D       0.144500
      5 C5          -3.2960     1.5370     0.0720 ca         1 A5D      -0.102600
      6 C6          -4.2430     2.3310    -0.6090 ca         1 A5D       0.452900
      7 N6          -4.2670     3.6870    -0.5120 nv         1 A5D      -1.066900
      8 N7          -2.2720     1.9260     0.9260 nc         1 A5D      -0.551100
      9 C8          -1.7280     0.7430     1.2660 cd         1 A5D       0.409700
     10 N9          -2.3470    -0.3680     0.6620 na         1 A5D      -0.288300
     11 OAB         -0.8460    -4.6520     0.4520 oh         1 A5D      -0.701000
     12 OAC         -3.0590    -3.6000    -0.5720 oh         1 A5D      -0.690000
     13 CAD          5.8090     3.1740    -0.6450 ca         1 A5D      -0.101000
     14 CAE          6.3240     2.4560     0.4470 ca         1 A5D      -0.110000
     15 CAF          4.9250     2.5480    -1.5410 ca         1 A5D      -0.110000
     16 CAG          5.9560     1.1140     0.6450 ca         1 A5D      -0.091000
     17 CAH          4.5570     1.2060    -1.3440 ca         1 A5D      -0.091000
     18 CAK          4.6730    -0.9730    -0.0340 c3         1 A5D       0.101900
     19 OAP         -0.7120    -1.8940     1.4850 os         1 A5D      -0.430000
     20 SAQ          3.4180    -1.1310     1.3140 ss         1 A5D      -0.228000
     21 SAR          1.7820    -0.0210     0.6180 ss         1 A5D      -0.178000
     22 CAS          5.0700     0.4810    -0.2500 ca         1 A5D      -0.090300
     23 CAW         -0.6150    -3.4440    -0.2790 c5         1 A5D       0.110300
     24 CAX         -1.9600    -2.6730    -0.4400 c5         1 A5D       0.081300
     25 CAY          0.2300    -2.3990     0.5100 c5         1 A5D       0.168300
     26 CAZ         -2.0160    -1.7800     0.8640 c5         1 A5D       0.316300
     27 H2          -5.9260    -0.0310    -2.1050 h5         1 A5D       0.046100
     28 HN6         -5.1260     4.1670    -0.7670 hn         1 A5D       0.507000
     29 HN6A        -3.7160     4.1040     0.2340 hn         1 A5D       0.507000
     30 H8          -0.8930     0.6160     1.9450 h5         1 A5D       0.063800
     31 HOAB        -1.8140    -4.8080     0.3010 ho         1 A5D       0.523000
     32 HOAC        -3.8360    -3.0920    -0.9110 ho         1 A5D       0.514000
     33 HAE          7.0070     2.9400     1.1420 ha         1 A5D       0.114500
     34 HAF          4.5250     3.1030    -2.3860 ha         1 A5D       0.114500
     35 HAG          6.3560     0.5650     1.4940 ha         1 A5D       0.112500
     36 HAH          3.8700     0.7300    -2.0410 ha         1 A5D       0.112500
     37 HAK          5.5590    -1.5620     0.2380 h1         1 A5D       0.076700
     38 HAKA         4.2580    -1.3950    -0.9580 h1         1 A5D       0.076700
     39 HAW         -0.1650    -3.6710    -1.2560 h1         1 A5D       0.053700
     40 HAX         -1.9050    -2.0300    -1.3300 h1         1 A5D       0.050700
     41 HAY          1.0650    -2.8840     1.0320 h1         1 A5D       0.108700
     42 HAZ         -2.7760    -2.1690     1.5540 h2         1 A5D       0.124700
     43 CAL          0.7980    -1.2420    -0.3590 c3         1 A5D       0.011600
     44 HAD          6.0940     4.2130    -0.7970 ha         1 A5D       0.114000
     45 HAL         -0.0160    -0.7060    -0.8620 h1         1 A5D       0.073700
     46 HALA         1.4480    -1.6650    -1.1350 h1         1 A5D       0.073700
@<TRIPOS>BOND
     1     1     2 ar  
     2     1     6 ar  
     3     2     3 ar  
     4     2    27 1   
     5     3     4 ar  
     6     4     5 ar  
     7     4    10 1   
     8     5     6 ar  
     9     5     8 1   
    10     6     7 1   
    11     7    28 1   
    12     7    29 1   
    13     8     9 2   
    14     9    10 1   
    15     9    30 1   
    16    10    26 1   
    17    11    23 1   
    18    11    31 1   
    19    12    24 1   
    20    12    32 1   
    21    13    14 ar  
    22    13    15 ar  
    23    13    44 1   
    24    14    16 ar  
    25    14    33 1   
    26    15    17 ar  
    27    15    34 1   
    28    16    22 ar  
    29    16    35 1   
    30    17    22 ar  
    31    17    36 1   
    32    18    20 1   
    33    18    22 1   
    34    18    37 1   
    35    18    38 1   
    36    19    25 1   
    37    19    26 1   
    38    20    21 1   
    39    21    43 1   
    40    23    24 1   
    41    23    25 1   
    42    23    39 1   
    43    24    26 1   
    44    24    40 1   
    45    25    41 1   
    46    25    43 1   
    47    26    42 1   
    48    43    45 1   
    49    43    46 1   
@<TRIPOS>SUBSTRUCTURE
     1 A5D         1 TEMP              0 ****  ****    0 ROOT
