@<TRIPOS>MOLECULE
A5D
   46    49     1     0     0
SMALL
abcg2


@<TRIPOS>ATOM
      1 N1          -6.2920     1.1870     1.1340 nb         1 A5D      -0.303000
      2 C2          -5.8590    -0.0210     1.4830 ca         1 A5D       0.183900
      3 N3          -4.7260    -0.6160     1.1520 nb         1 A5D      -0.217000
      4 C4          -3.9740     0.1580     0.3730 ca         1 A5D       0.144500
      5 C5          -4.2860     1.4330    -0.0690 ca         1 A5D      -0.102600
      6 C6          -5.5250     1.9520     0.3480 ca         1 A5D       0.452900
      7 N6          -5.9580     3.1630    -0.0050 nv         1 A5D      -1.066900
      8 N7          -3.2760     1.9400    -0.8470 nc         1 A5D      -0.551100
      9 C8          -2.3850     0.9960    -0.8750 cd         1 A5D       0.409700
     10 N9          -2.7460    -0.1150    -0.1590 na         1 A5D      -0.288300
     11 OAB         -0.7320    -3.9520    -0.0920 oh         1 A5D      -0.701000
     12 OAC         -2.8010    -2.8790    -1.6050 oh         1 A5D      -0.690000
     13 CAD          6.8960     2.5520    -0.3250 ca         1 A5D      -0.101000
     14 CAE          6.9780     1.9620     0.9310 ca         1 A5D      -0.110000
     15 CAF          6.1000     1.9740    -1.3040 ca         1 A5D      -0.110000
     16 CAG          6.2650     0.8050     1.2050 ca         1 A5D      -0.091000
     17 CAH          5.3880     0.8130    -1.0280 ca         1 A5D      -0.091000
     18 CAK          4.6820    -1.0190     0.5290 c3         1 A5D       0.101900
     19 OAP         -0.7310    -1.0100     0.5570 os         1 A5D      -0.430000
     20 SAQ          3.1460    -0.6780     1.4660 ss         1 A5D      -0.228000
     21 SAR          2.0170     0.3810     0.1260 ss         1 A5D      -0.178000
     22 CAS          5.4650     0.2170     0.2270 ca         1 A5D      -0.090300
     23 CAW         -0.4340    -2.8430    -0.9000 c5         1 A5D       0.110300
     24 CAX         -1.7060    -2.0810    -1.2750 c5         1 A5D       0.081300
     25 CAY          0.2900    -1.8060    -0.0470 c5         1 A5D       0.168300
     26 CAZ         -1.9860    -1.3250     0.0220 c5         1 A5D       0.316300
     27 H2          -6.5270    -0.5890     2.1220 h5         1 A5D       0.046100
     28 HN6         -6.8460     3.5000     0.3230 hn         1 A5D       0.507000
     29 HN6A        -5.4110     3.7590    -0.6000 hn         1 A5D       0.507000
     30 H8          -1.4420     1.0570    -1.3970 h5         1 A5D       0.063800
     31 HOAB        -1.4470    -4.4440    -0.5120 ho         1 A5D       0.523000
     32 HOAC        -2.7360    -3.1290    -2.5330 ho         1 A5D       0.514000
     33 HAE          7.6010     2.4050     1.6980 ha         1 A5D       0.114500
     34 HAF          6.0340     2.4240    -2.2870 ha         1 A5D       0.114500
     35 HAG          6.3300     0.3530     2.1880 ha         1 A5D       0.112500
     36 HAH          4.7710     0.3640    -1.7970 ha         1 A5D       0.112500
     37 HAK          5.2360    -1.6980     1.1820 h1         1 A5D       0.076700
     38 HAKA         4.4240    -1.5710    -0.3750 h1         1 A5D       0.076700
     39 HAW          0.1510    -3.1290    -1.7840 h1         1 A5D       0.053700
     40 HAX         -1.4730    -1.3660    -2.0750 h1         1 A5D       0.050700
     41 HAY          0.8630    -2.3020     0.7430 h1         1 A5D       0.108700
     42 HAZ         -2.5710    -1.9500     0.7050 h2         1 A5D       0.124700
     43 CAL          1.2340    -0.9370    -0.8540 c3         1 A5D       0.011600
     44 HAD          7.4520     3.4550    -0.5390 ha         1 A5D       0.114000
     45 HAL          0.7210    -0.4100    -1.6640 h1         1 A5D       0.073700
     46 HALA         2.0090    -1.5520    -1.3150 h1         1 A5D       0.073700
@<TRIPOS>BOND
     1     1     2 ar  
     2     1     6 ar  
     3     2     3 ar  
     4     2    27 1   
     5     3     4 ar  
     6     4     5 ar  
     7     4    10 1   
     8     5     6 ar  
     9     5     8 1   
    10     6     7 1   
    11     7    28 1   
    12     7    29 1   
    13     8     9 2   
    14     9    10 1   
    15     9    30 1   
    16    10    26 1   
    17    11    23 1   
    18    11    31 1   
    19    12    24 1   
    20    12    32 1   
    21    13    14 ar  
    22    13    15 ar  
    23    13    44 1   
    24    14    16 ar  
    25    14    33 1   
    26    15    17 ar  
    27    15    34 1   
    28    16    22 ar  
    29    16    35 1   
    30    17    22 ar  
    31    17    36 1   
    32    18    20 1   
    33    18    22 1   
    34    18    37 1   
    35    18    38 1   
    36    19    25 1   
    37    19    26 1   
    38    20    21 1   
    39    21    43 1   
    40    23    24 1   
    41    23    25 1   
    42    23    39 1   
    43    24    26 1   
    44    24    40 1   
    45    25    41 1   
    46    25    43 1   
    47    26    42 1   
    48    43    45 1   
    49    43    46 1   
@<TRIPOS>SUBSTRUCTURE
     1 A5D         1 TEMP              0 ****  ****    0 ROOT
