@<TRIPOS>MOLECULE
A5E
   20    21     1     0     0
SMALL
bcc


@<TRIPOS>ATOM
      1 C7           3.6150     0.0990    -0.0310 cc         1 A5E      -0.109100
      2 C4           1.1700    -0.2860     0.0200 cc         1 A5E      -0.114000
      3 C5           1.8930    -1.4410    -0.1330 cd         1 A5E      -0.108000
      4 C6           3.2900    -1.2190    -0.1630 cd         1 A5E      -0.154000
      5 C3          -0.2760    -0.1310     0.1160 ce         1 A5E       0.415900
      6 C2          -0.9050     1.2230     0.2590 c6         1 A5E      -0.144700
      7 C1          -2.2650     1.2290    -0.4210 c6         1 A5E      -0.168400
      8 C           -3.0810     0.0270    -0.0300 c          1 A5E       0.695500
      9 N1          -2.3240    -1.0830     0.2360 ns         1 A5E      -0.346900
     10 N           -0.9780    -1.2000     0.1170 n2         1 A5E      -0.433300
     11 S            2.2240     1.0770     0.1270 ss         1 A5E      -0.079800
     12 H1           4.5980     0.5460    -0.0190 h4         1 A5E       0.171000
     13 H2           1.4330    -2.4150    -0.2240 ha         1 A5E       0.167000
     14 H3           4.0230    -2.0030    -0.2800 ha         1 A5E       0.156000
     15 H4          -1.0140     1.4400     1.3270 hc         1 A5E       0.070200
     16 H5          -2.8210     2.1360    -0.1910 hc         1 A5E       0.081700
     17 H6          -2.8010    -1.9660     0.3430 hn         1 A5E       0.347500
     18 H7          -0.2790     2.0120    -0.1580 hc         1 A5E       0.070200
     19 H8          -2.1430     1.1890    -1.5070 hc         1 A5E       0.081700
     20 O           -4.2900    -0.0050     0.0130 o          1 A5E      -0.599500
@<TRIPOS>BOND
     1     1     4 2   
     2     1    11 1   
     3     1    12 1   
     4     2     3 2   
     5     2     5 1   
     6     2    11 1   
     7     3     4 1   
     8     3    13 1   
     9     4    14 1   
    10     5     6 1   
    11     5    10 2   
    12     6     7 1   
    13     6    15 1   
    14     6    18 1   
    15     7     8 1   
    16     7    16 1   
    17     7    19 1   
    18     8     9 1   
    19     8    20 2   
    20     9    10 1   
    21     9    17 1   
@<TRIPOS>SUBSTRUCTURE
     1 A5E         1 TEMP              0 ****  ****    0 ROOT
