@<TRIPOS>MOLECULE
A5E
   20    21     1     0     0
SMALL
No Charge or Current Charge


@<TRIPOS>ATOM
      1 C7           3.6820     0.0810     0.0920 cc         1 A5E      -0.236000
      2 C4           1.1840    -0.2930     0.1520 cc         1 A5E      -0.258900
      3 C5           1.9050    -1.3870    -0.2690 cd         1 A5E      -0.090000
      4 C6           3.3090    -1.1760    -0.3050 cd         1 A5E      -0.136000
      5 C3          -0.2670    -0.1660     0.3130 ce         1 A5E       0.415900
      6 C2          -0.8990     1.2360     0.2320 c6         1 A5E      -0.144700
      7 C1          -2.2720     1.1970    -0.4990 c6         1 A5E      -0.168400
      8 C           -3.1130    -0.0130    -0.0650 c          1 A5E       0.553000
      9 N1          -2.3970    -1.1420     0.3110 ns         1 A5E      -0.279900
     10 N           -1.0070    -1.2360     0.2380 n2         1 A5E      -0.433300
     11 S            2.2760     1.0440     0.5290 ss         1 A5E       0.210000
     12 H1           4.6720     0.5140     0.1630 h4         1 A5E       0.153000
     13 H2           1.4450    -2.3310    -0.5520 ha         1 A5E       0.149000
     14 H3           4.0180    -1.9380    -0.6160 ha         1 A5E       0.138000
     15 H4          -1.0430     1.6100     1.2540 hc         1 A5E       0.070200
     16 H5          -2.8490     2.1260    -0.4160 hc         1 A5E       0.081700
     17 H6          -2.9590    -1.9160     0.6550 hn         1 A5E       0.347500
     18 H7          -0.2350     1.9480    -0.2760 hc         1 A5E       0.070200
     19 H8          -2.0490     1.0310    -1.5620 hc         1 A5E       0.081700
     20 O           -4.3310     0.0370     0.0210 o          1 A5E      -0.524000
@<TRIPOS>BOND
     1     1     4 2   
     2     1    11 1   
     3     1    12 1   
     4     2     3 2   
     5     2     5 1   
     6     2    11 1   
     7     3     4 1   
     8     3    13 1   
     9     4    14 1   
    10     5     6 1   
    11     5    10 2   
    12     6     7 1   
    13     6    15 1   
    14     6    18 1   
    15     7     8 1   
    16     7    16 1   
    17     7    19 1   
    18     8     9 1   
    19     8    20 2   
    20     9    10 1   
    21     9    17 1   
@<TRIPOS>SUBSTRUCTURE
     1 A5E         1 TEMP              0 ****  ****    0 ROOT
