@<TRIPOS>MOLECULE
A5F
   50    51     1     0     0
SMALL
No Charge or Current Charge


@<TRIPOS>ATOM
      1 C10        -20.2940    -4.1640     8.8560 cx         1 A5F      -0.093400
      2 C8         -20.0530    -3.0090     7.9110 cx         1 A5F      -0.100700
      3 C9         -21.2070    -2.9590     8.8890 cx         1 A5F      -0.065600
      4 C11        -20.3050    -3.1480     6.4160 c3         1 A5F       0.187600
      5 C12        -21.1400    -2.0520    10.0140 c1         1 A5F      -0.049100
      6 C13        -19.6650     7.1000    18.4010 c3         1 A5F       0.183200
      7 C14        -20.9160     6.1470    18.4940 c3         1 A5F      -0.000300
      8 C15        -21.0560    -1.2890    10.9560 cg         1 A5F      -0.061000
      9 C16        -19.6470     8.1520    19.5380 c3         1 A5F      -0.090100
     10 C17        -19.5820     7.8160    17.0270 c3         1 A5F      -0.090100
     11 C18        -22.2670     6.9190    18.4340 c          1 A5F       0.584100
     12 C20        -20.9510    -0.4340    12.0130 cg         1 A5F      -0.012000
     13 C21        -20.4330     2.9850    16.2700 ca         1 A5F      -0.148600
     14 C22        -19.7840     1.7280    16.2620 ca         1 A5F      -0.071000
     15 C23        -21.2240     3.3410    15.1490 ca         1 A5F      -0.071000
     16 C24        -20.7090     1.2160    14.0660 ca         1 A5F       0.057000
     17 C25        -20.8470     0.3290    12.9600 ch         1 A5F      -0.099000
     18 C26        -19.9210     0.8530    15.1710 ca         1 A5F      -0.098500
     19 C27        -21.3580     2.4620    14.0600 ca         1 A5F      -0.098500
     20 N5         -20.9230     5.1080    17.4240 ns         1 A5F      -0.491900
     21 N7         -22.7520     7.4160    19.6360 ns         1 A5F      -0.368400
     22 O1         -19.1670    -3.7290     5.7710 oh         1 A5F      -0.654000
     23 O2         -22.9150     7.0570    17.4010 o          1 A5F      -0.622100
     24 O04        -24.0790     7.9860    19.7050 oh         1 A5F      -0.437100
     25 H1         -20.6910    -5.0880     8.4420 hc         1 A5F       0.081700
     26 H2         -19.5890    -4.3020     9.6730 hc         1 A5F       0.081700
     27 H3         -19.1950    -2.3750     8.1250 hc         1 A5F       0.098700
     28 H4         -22.2100    -3.0900     8.4880 hc         1 A5F       0.098700
     29 H5         -20.5130    -2.1550     5.9970 h1         1 A5F       0.022200
     30 H6         -21.1930    -3.7720     6.2500 h1         1 A5F       0.022200
     31 H7         -20.8940     5.6360    19.4650 h1         1 A5F       0.083700
     32 H8         -19.7570     7.6740    20.5190 hc         1 A5F       0.046367
     33 H9         -18.7020     8.7090    19.5410 hc         1 A5F       0.046367
     34 H10        -20.4530     8.8840    19.4170 hc         1 A5F       0.046367
     35 H11        -20.4570     8.4570    16.8650 hc         1 A5F       0.046367
     36 H12        -18.6920     8.4550    16.9710 hc         1 A5F       0.046367
     37 H13        -19.5320     7.0990    16.1990 hc         1 A5F       0.046367
     38 H14        -19.1690     1.4230    17.1060 ha         1 A5F       0.130000
     39 H15        -21.7440     4.2950    15.1020 ha         1 A5F       0.130000
     40 H16        -19.4140    -0.1090    15.1870 ha         1 A5F       0.127500
     41 H17        -21.9700     2.7520    13.2080 ha         1 A5F       0.127500
     42 H18        -21.4960     5.2850    16.6070 hn         1 A5F       0.332500
     43 H19        -18.7330     5.3060    18.6160 hn         1 A5F       0.409000
     44 H20        -17.9150     6.3280    17.6790 hn         1 A5F       0.409000
     45 H22        -22.3160     7.1570    20.5210 hn         1 A5F       0.364500
     46 H23        -19.3860    -3.7930     4.8150 ho         1 A5F       0.443000
     47 H24        -24.4590     7.7490    18.8220 ho         1 A5F       0.474000
     48 C19        -20.2600     3.9010    17.4640 c          1 A5F       0.613700
     49 N6         -18.4440     6.2950    18.5550 n8         1 A5F      -1.007200
     50 O3         -19.5640     3.5990    18.4240 o          1 A5F      -0.608100
@<TRIPOS>BOND
     1     1     2 1   
     2     1     3 1   
     3     1    25 1   
     4     1    26 1   
     5     2     3 1   
     6     2     4 1   
     7     2    27 1   
     8     3     5 1   
     9     3    28 1   
    10     4    22 1   
    11     4    29 1   
    12     4    30 1   
    13     5     8 3   
    14     6     7 1   
    15     6     9 1   
    16     6    10 1   
    17     6    49 1   
    18     7    11 1   
    19     7    20 1   
    20     7    31 1   
    21     8    12 1   
    22     9    32 1   
    23     9    33 1   
    24     9    34 1   
    25    10    35 1   
    26    10    36 1   
    27    10    37 1   
    28    11    21 1   
    29    11    23 2   
    30    12    17 3   
    31    13    14 ar  
    32    13    15 ar  
    33    13    48 1   
    34    14    18 ar  
    35    14    38 1   
    36    15    19 ar  
    37    15    39 1   
    38    16    17 1   
    39    16    18 ar  
    40    16    19 ar  
    41    18    40 1   
    42    19    41 1   
    43    20    42 1   
    44    20    48 1   
    45    21    24 1   
    46    21    45 1   
    47    22    46 1   
    48    24    47 1   
    49    43    49 1   
    50    44    49 1   
    51    48    50 2   
@<TRIPOS>SUBSTRUCTURE
     1 A5F         1 TEMP              0 ****  ****    0 ROOT
