@<TRIPOS>MOLECULE
A5F
   50    51     1     0     0
SMALL
abcg2


@<TRIPOS>ATOM
      1 C10        -20.1640    -4.0640     8.8730 cx         1 A5F      -0.093400
      2 C8         -19.9060    -2.9240     7.9560 cx         1 A5F      -0.100700
      3 C9         -21.0800    -2.8620     8.9120 cx         1 A5F      -0.065600
      4 C11        -20.2290    -3.0400     6.4940 c3         1 A5F       0.187600
      5 C12        -21.0390    -1.9880    10.0390 c1         1 A5F      -0.049100
      6 C13        -19.6050     7.0570    18.1740 c3         1 A5F       0.183200
      7 C14        -20.8530     6.1400    18.4100 c3         1 A5F      -0.000300
      8 C15        -20.9980    -1.2490    10.9970 cg         1 A5F      -0.061000
      9 C16        -19.5960     8.1480    19.2430 c3         1 A5F      -0.090100
     10 C17        -19.6050     7.6950    16.7870 c3         1 A5F      -0.090100
     11 C18        -22.1620     6.9090    18.5020 c          1 A5F       0.584100
     12 C20        -20.9380    -0.3950    12.0580 cg         1 A5F      -0.012000
     13 C21        -20.7110     2.9840    16.3090 ca         1 A5F      -0.148600
     14 C22        -20.0020     1.7840    16.3150 ca         1 A5F      -0.071000
     15 C23        -21.4940     3.2970    15.1950 ca         1 A5F      -0.071000
     16 C24        -20.8370     1.2370    14.1170 ca         1 A5F       0.057000
     17 C25        -20.9110     0.3440    13.0170 ch         1 A5F      -0.099000
     18 C26        -20.0600     0.9220    15.2370 ca         1 A5F      -0.098500
     19 C27        -21.5560     2.4370    14.1140 ca         1 A5F      -0.098500
     20 N5         -21.0260     5.1330    17.3880 ns         1 A5F      -0.491900
     21 N7         -22.6860     6.9700    19.7220 ns         1 A5F      -0.368400
     22 O1         -19.1450    -3.6740     5.8490 oh         1 A5F      -0.654000
     23 O2         -22.7120     7.4340    17.5370 o          1 A5F      -0.622100
     24 O04        -23.8390     7.6610    19.9650 oh         1 A5F      -0.437100
     25 H1         -20.5660    -4.9830     8.4650 hc         1 A5F       0.081700
     26 H2         -19.4920    -4.1980     9.7100 hc         1 A5F       0.081700
     27 H3         -19.0640    -2.2860     8.2000 hc         1 A5F       0.098700
     28 H4         -22.0630    -2.9790     8.4680 hc         1 A5F       0.098700
     29 H5         -20.4160    -2.0400     6.0840 h1         1 A5F       0.022200
     30 H6         -21.1570    -3.6150     6.3790 h1         1 A5F       0.022200
     31 H7         -20.6890     5.6170    19.3550 h1         1 A5F       0.083700
     32 H8         -19.5500     7.7170    20.2470 hc         1 A5F       0.046367
     33 H9         -18.7170     8.7810    19.1110 hc         1 A5F       0.046367
     34 H10        -20.4730     8.7910    19.1900 hc         1 A5F       0.046367
     35 H11        -20.4710     8.3360    16.6340 hc         1 A5F       0.046367
     36 H12        -18.7060     8.3000    16.6790 hc         1 A5F       0.046367
     37 H13        -19.5900     6.9460    15.9930 hc         1 A5F       0.046367
     38 H14        -19.3990     1.5210    17.1720 ha         1 A5F       0.130000
     39 H15        -22.0980     4.1940    15.1590 ha         1 A5F       0.130000
     40 H16        -19.5020    -0.0050    15.2610 ha         1 A5F       0.127500
     41 H17        -22.1760     2.6930    13.2650 ha         1 A5F       0.127500
     42 H18        -21.2760     5.4720    16.4730 hn         1 A5F       0.332500
     43 H19        -18.3190     5.8560    19.2190 hn         1 A5F       0.409000
     44 H20        -18.3130     5.5560    17.6240 hn         1 A5F       0.409000
     45 H22        -22.2650     6.5990    20.5600 hn         1 A5F       0.364500
     46 H23        -19.3700    -3.7650     4.9190 ho         1 A5F       0.443000
     47 H24        -24.0390     8.1020    19.1240 ho         1 A5F       0.474000
     48 C19        -20.5870     3.8640    17.5160 c          1 A5F       0.613700
     49 N6         -18.3730     6.2990    18.3090 n8         1 A5F      -1.007200
     50 O3         -20.1170     3.4230    18.5540 o          1 A5F      -0.608100
@<TRIPOS>BOND
     1     1     2 1   
     2     1     3 1   
     3     1    25 1   
     4     1    26 1   
     5     2     3 1   
     6     2     4 1   
     7     2    27 1   
     8     3     5 1   
     9     3    28 1   
    10     4    22 1   
    11     4    29 1   
    12     4    30 1   
    13     5     8 3   
    14     6     7 1   
    15     6     9 1   
    16     6    10 1   
    17     6    49 1   
    18     7    11 1   
    19     7    20 1   
    20     7    31 1   
    21     8    12 1   
    22     9    32 1   
    23     9    33 1   
    24     9    34 1   
    25    10    35 1   
    26    10    36 1   
    27    10    37 1   
    28    11    21 1   
    29    11    23 2   
    30    12    17 3   
    31    13    14 ar  
    32    13    15 ar  
    33    13    48 1   
    34    14    18 ar  
    35    14    38 1   
    36    15    19 ar  
    37    15    39 1   
    38    16    17 1   
    39    16    18 ar  
    40    16    19 ar  
    41    18    40 1   
    42    19    41 1   
    43    20    42 1   
    44    20    48 1   
    45    21    24 1   
    46    21    45 1   
    47    22    46 1   
    48    24    47 1   
    49    43    49 1   
    50    44    49 1   
    51    48    50 2   
@<TRIPOS>SUBSTRUCTURE
     1 A5F         1 TEMP              0 ****  ****    0 ROOT
