@<TRIPOS>MOLECULE
A5G
   41    44     1     0     0
SMALL
abcg2


@<TRIPOS>ATOM
      1 C1          22.4670    14.5920    -9.3710 c6         1 A5G       0.178200
      2 C2          21.2910    14.4260   -10.3540 c6         1 A5G      -0.120900
      3 C3          21.6330    14.8530   -11.7760 c6         1 A5G       0.212300
      4 C11         26.3550    10.8520   -14.0870 ca         1 A5G      -0.040000
      5 C12         27.7030    10.5850   -13.9140 ca         1 A5G      -0.173000
      6 C13         28.1250     9.2700   -13.9390 ca         1 A5G       0.203000
      7 C14         27.2440     8.2230   -14.1260 ca         1 A5G      -0.203000
      8 C15         25.9090     8.5300   -14.2870 ca         1 A5G       0.212000
      9 N           22.2060    13.9360    -8.0940 n8         1 A5G      -0.989200
     10 C           22.7160    16.0710    -9.0760 c3         1 A5G      -0.085100
     11 C10         25.4150     9.8330   -14.2770 ca         1 A5G      -0.054000
     12 C4          23.9890    14.4040   -11.4060 c6         1 A5G       0.212300
     13 C5          23.7200    13.9450    -9.9790 c6         1 A5G      -0.120900
     14 C6          22.7500    13.0200   -12.9470 cc         1 A5G       0.697300
     15 C7          23.9990    10.1120   -14.4680 cc         1 A5G      -0.112000
     16 C8          23.0040     9.4740   -15.1830 cd         1 A5G       0.264900
     17 C9          22.0810    11.1780   -14.3730 cc         1 A5G       0.413900
     18 F1          25.0580     7.5110   -14.4560 f          1 A5G      -0.168000
     19 N1          22.8220    14.1600   -12.2460 nh         1 A5G      -0.749300
     20 N2          23.7530    12.2210   -13.1390 n2         1 A5G      -0.547800
     21 N3          23.3600    11.2160   -13.9560 na         1 A5G       0.104300
     22 N4          21.8160    10.1430   -15.1200 nd         1 A5G      -0.624000
     23 S           21.2290    12.5430   -13.7310 ss         1 A5G      -0.233800
     24 H6          20.4290    15.0000   -10.0020 hc         1 A5G       0.058700
     25 H5          20.9870    13.3740   -10.3690 hc         1 A5G       0.058700
     26 H7          21.8340    15.9250   -11.8300 h1         1 A5G       0.067200
     27 H8          20.7930    14.6780   -12.4500 h1         1 A5G       0.067200
     28 H14         26.0290    11.8810   -14.0780 ha         1 A5G       0.137000
     29 H15         28.4100    11.3900   -13.7700 ha         1 A5G       0.137000
     30 H16         27.5810     7.1950   -14.1410 ha         1 A5G       0.151000
     31 H3          21.3800    14.3430    -7.6690 hn         1 A5G       0.396500
     32 H4          21.9770    12.9610    -8.2550 hn         1 A5G       0.396500
     33 H           21.8370    16.5220    -8.6100 hc         1 A5G       0.040700
     34 H2          23.5560    16.1840    -8.3890 hc         1 A5G       0.040700
     35 H1          22.9390    16.6490    -9.9720 hc         1 A5G       0.040700
     36 H10         24.8520    13.8920   -11.8250 h1         1 A5G       0.067200
     37 H9          24.2020    15.4740   -11.4450 h1         1 A5G       0.067200
     38 H12         23.5990    12.8560    -9.9790 hc         1 A5G       0.058700
     39 H11         24.5890    14.1670    -9.3550 hc         1 A5G       0.058700
     40 H13         23.0970     8.5730   -15.7670 h4         1 A5G       0.052100
     41 F           29.4240     8.9950   -13.7780 f          1 A5G      -0.171000
@<TRIPOS>BOND
     1     1     2 1   
     2     1     9 1   
     3     1    10 1   
     4     1    13 1   
     5     2     3 1   
     6     2    24 1   
     7     2    25 1   
     8     3    19 1   
     9     3    26 1   
    10     3    27 1   
    11     4     5 ar  
    12     4    11 ar  
    13     4    28 1   
    14     5     6 ar  
    15     5    29 1   
    16     6     7 ar  
    17     6    41 1   
    18     7     8 ar  
    19     7    30 1   
    20     8    11 ar  
    21     8    18 1   
    22     9    31 1   
    23     9    32 1   
    24    10    33 1   
    25    10    34 1   
    26    10    35 1   
    27    11    15 1   
    28    12    13 1   
    29    12    19 1   
    30    12    36 1   
    31    12    37 1   
    32    13    38 1   
    33    13    39 1   
    34    14    19 1   
    35    14    20 2   
    36    14    23 1   
    37    15    16 2   
    38    15    21 1   
    39    16    22 1   
    40    16    40 1   
    41    17    21 1   
    42    17    22 2   
    43    17    23 1   
    44    20    21 1   
@<TRIPOS>SUBSTRUCTURE
     1 A5G         1 TEMP              0 ****  ****    0 ROOT
