@<TRIPOS>MOLECULE
A5G
   41    44     1     0     0
SMALL
No Charge or Current Charge


@<TRIPOS>ATOM
      1 C1          22.3900    14.5920    -9.3140 c6         1 A5G       0.178200
      2 C2          21.2130    14.4120   -10.3140 c6         1 A5G      -0.120900
      3 C3          21.5920    14.8740   -11.7430 c6         1 A5G       0.212300
      4 C11         26.4920    10.8480   -14.4900 ca         1 A5G      -0.040000
      5 C12         27.8360    10.4750   -14.3070 ca         1 A5G      -0.173000
      6 C13         28.1560     9.1530   -13.9730 ca         1 A5G       0.203000
      7 C14         27.1440     8.2000   -13.8150 ca         1 A5G      -0.203000
      8 C15         25.8030     8.5690   -13.9980 ca         1 A5G       0.212000
      9 N           22.0270    13.9490    -8.0430 n8         1 A5G      -0.989200
     10 C           22.6570    16.0960    -9.0020 c3         1 A5G      -0.085100
     11 C10         25.4560     9.8990   -14.3450 ca         1 A5G      -0.054000
     12 C4          23.9850    14.3590   -11.3210 c6         1 A5G       0.212300
     13 C5          23.6550    13.8900    -9.8820 c6         1 A5G      -0.120900
     14 C6          22.7450    13.1100   -13.1350 cc         1 A5G       0.697300
     15 C7          24.0620    10.3220   -14.5450 cc         1 A5G      -0.112000
     16 C8          23.0400     9.5270   -15.0470 cd         1 A5G       0.264900
     17 C9          22.1830    11.4430   -14.6920 cc         1 A5G       0.413900
     18 F1          24.8490     7.6300   -13.8050 f          1 A5G      -0.168000
     19 N1          22.8010    14.1360   -12.2020 nh         1 A5G      -0.749300
     20 N2          23.8400    12.4770   -13.4510 n2         1 A5G      -0.547800
     21 N3          23.4960    11.5600   -14.4090 na         1 A5G       0.104300
     22 N4          21.8270    10.2230   -15.0540 nd         1 A5G      -0.624000
     23 S           21.2090    12.5960   -13.8580 ss         1 A5G      -0.233800
     24 H6          20.3310    14.9710    -9.9720 hc         1 A5G       0.058700
     25 H5          20.9120    13.3560   -10.3580 hc         1 A5G       0.058700
     26 H7          21.7930    15.9550   -11.7400 h1         1 A5G       0.067200
     27 H8          20.7310    14.7340   -12.4110 h1         1 A5G       0.067200
     28 H14         26.2580    11.8770   -14.7540 ha         1 A5G       0.137000
     29 H15         28.6270    11.2100   -14.4250 ha         1 A5G       0.137000
     30 H16         27.3960     7.1790   -13.5460 ha         1 A5G       0.151000
     31 H3          21.1150    13.4950    -8.1540 hn         1 A5G       0.396500
     32 H4          22.6660    13.1640    -7.8800 hn         1 A5G       0.396500
     33 H           21.7670    16.5800    -8.5820 hc         1 A5G       0.040700
     34 H2          23.4690    16.2140    -8.2740 hc         1 A5G       0.040700
     35 H1          22.9410    16.6640    -9.8950 hc         1 A5G       0.040700
     36 H10         24.8810    13.8270   -11.6730 h1         1 A5G       0.067200
     37 H9          24.2510    15.4260   -11.3120 h1         1 A5G       0.067200
     38 H12         23.5090    12.8020    -9.8970 hc         1 A5G       0.058700
     39 H11         24.5210    14.0770    -9.2310 hc         1 A5G       0.058700
     40 H13         23.0870     8.4870   -15.3450 h4         1 A5G       0.052100
     41 F           29.4470     8.7980   -13.7950 f          1 A5G      -0.171000
@<TRIPOS>BOND
     1     1     2 1   
     2     1     9 1   
     3     1    10 1   
     4     1    13 1   
     5     2     3 1   
     6     2    24 1   
     7     2    25 1   
     8     3    19 1   
     9     3    26 1   
    10     3    27 1   
    11     4     5 ar  
    12     4    11 ar  
    13     4    28 1   
    14     5     6 ar  
    15     5    29 1   
    16     6     7 ar  
    17     6    41 1   
    18     7     8 ar  
    19     7    30 1   
    20     8    11 ar  
    21     8    18 1   
    22     9    31 1   
    23     9    32 1   
    24    10    33 1   
    25    10    34 1   
    26    10    35 1   
    27    11    15 1   
    28    12    13 1   
    29    12    19 1   
    30    12    36 1   
    31    12    37 1   
    32    13    38 1   
    33    13    39 1   
    34    14    19 1   
    35    14    20 2   
    36    14    23 1   
    37    15    16 2   
    38    15    21 1   
    39    16    22 1   
    40    16    40 1   
    41    17    21 1   
    42    17    22 2   
    43    17    23 1   
    44    20    21 1   
@<TRIPOS>SUBSTRUCTURE
     1 A5G         1 TEMP              0 ****  ****    0 ROOT
