@<TRIPOS>MOLECULE
A5H
   24    26     1     0     0
SMALL
bcc


@<TRIPOS>ATOM
      1 C10         -1.7560     1.8470    -0.4630 c5         1 A5H       0.016300
      2 C9          -3.2450     2.2620    -0.3350 c5         1 A5H       0.087800
      3 C8          -3.1240     0.1760     0.2600 cc         1 A5H       0.147600
      4 C7          -1.5040    -1.6670     0.5780 cc         1 A5H      -0.141100
      5 C4           1.1640     0.8370     0.7040 ca         1 A5H      -0.100000
      6 C5           2.5350     1.0050     0.6050 ca         1 A5H      -0.123000
      7 C6          -0.9020    -0.4960     0.2940 cd         1 A5H       0.052700
      8 C3           0.5420    -0.2900     0.1660 ca         1 A5H      -0.033000
      9 C2           1.3260    -1.2480    -0.4770 ca         1 A5H      -0.100000
     10 C1           2.6980    -1.0940    -0.5760 ca         1 A5H      -0.123000
     11 C            3.2920     0.0360    -0.0350 ca         1 A5H       0.036400
     12 N1          -1.8010     0.5460     0.1930 na         1 A5H      -0.184100
     13 N           -4.0040     1.0430    -0.0360 n2         1 A5H      -0.312200
     14 S           -3.2490    -1.5100     0.6850 ss         1 A5H      -0.140800
     15 H1          -1.4360     1.7410    -1.5030 h1         1 A5H       0.058200
     16 H2          -3.3730     2.9870     0.4740 h1         1 A5H       0.067700
     17 H3          -1.0280    -2.6080     0.7970 h4         1 A5H       0.181000
     18 H4           0.5860     1.5850     1.2290 ha         1 A5H       0.143500
     19 H5           3.0060     1.8800     1.0300 ha         1 A5H       0.151500
     20 H6           0.8600    -2.1180    -0.9190 ha         1 A5H       0.143500
     21 H7           3.2940    -1.8430    -1.0790 ha         1 A5H       0.151500
     22 H8          -1.0890     2.5420     0.0410 h1         1 A5H       0.058200
     23 H9          -3.6110     2.7320    -1.2480 h1         1 A5H       0.067700
     24 CL           5.0060     0.2420    -0.1650 cl         1 A5H      -0.103400
@<TRIPOS>BOND
     1     1     2 1   
     2     1    12 1   
     3     1    15 1   
     4     1    22 1   
     5     2    13 1   
     6     2    16 1   
     7     2    23 1   
     8     3    12 1   
     9     3    13 2   
    10     3    14 1   
    11     4     7 2   
    12     4    14 1   
    13     4    17 1   
    14     5     6 ar  
    15     5     8 ar  
    16     5    18 1   
    17     6    11 ar  
    18     6    19 1   
    19     7     8 1   
    20     7    12 1   
    21     8     9 ar  
    22     9    10 ar  
    23     9    20 1   
    24    10    11 ar  
    25    10    21 1   
    26    11    24 1   
@<TRIPOS>SUBSTRUCTURE
     1 A5H         1 TEMP              0 ****  ****    0 ROOT
