@<TRIPOS>MOLECULE
A5H
   24    26     1     0     0
SMALL
No Charge or Current Charge


@<TRIPOS>ATOM
      1 C10         -1.8510     1.9600     0.0130 c5         1 A5H       0.045600
      2 C9          -3.3640     2.3390     0.0220 c5         1 A5H       0.087800
      3 C8          -3.1810     0.1030     0.0320 cc         1 A5H      -0.048000
      4 C7          -1.5430    -1.6950     0.0290 cc         1 A5H      -0.268000
      5 C4           1.2130     0.9930    -0.0050 ca         1 A5H      -0.082000
      6 C5           2.6150     1.1090    -0.0150 ca         1 A5H      -0.105000
      7 C6          -0.9060    -0.4530     0.0180 cd         1 A5H       0.002000
      8 C3           0.5800    -0.2760     0.0060 ca         1 A5H      -0.033000
      9 C2           1.4180    -1.4190     0.0060 ca         1 A5H      -0.082000
     10 C1           2.8190    -1.3020    -0.0050 ca         1 A5H      -0.105000
     11 C            3.4180    -0.0370    -0.0160 ca         1 A5H       0.128000
     12 N1          -1.9050     0.5290     0.0200 na         1 A5H      -0.112000
     13 N           -4.1000     1.0180     0.0340 n2         1 A5H      -0.312200
     14 S           -3.3100    -1.6240     0.0420 ss         1 A5H       0.149000
     15 H1          -1.3510     2.3300    -0.8910 h1         1 A5H       0.058200
     16 H2          -3.6240     2.9290     0.9100 h1         1 A5H       0.067700
     17 H3          -1.1030    -2.6810     0.0310 h4         1 A5H       0.163000
     18 H4           0.6490     1.9140    -0.0050 ha         1 A5H       0.125500
     19 H5           3.0790     2.0930    -0.0240 ha         1 A5H       0.133500
     20 H6           1.0000    -2.4200     0.0140 ha         1 A5H       0.125500
     21 H7           3.4410    -2.1940    -0.0050 ha         1 A5H       0.133500
     22 H8          -1.3380     2.3390     0.9060 h1         1 A5H       0.058200
     23 H9          -3.6370     2.9200    -0.8690 h1         1 A5H       0.067700
     24 Cl           5.1710     0.1120    -0.0290 cl         1 A5H      -0.195000
@<TRIPOS>BOND
     1     1     2 1   
     2     1    12 1   
     3     1    15 1   
     4     1    22 1   
     5     2    13 1   
     6     2    16 1   
     7     2    23 1   
     8     3    12 1   
     9     3    13 2   
    10     3    14 1   
    11     4     7 2   
    12     4    14 1   
    13     4    17 1   
    14     5     6 ar  
    15     5     8 ar  
    16     5    18 1   
    17     6    11 ar  
    18     6    19 1   
    19     7     8 1   
    20     7    12 1   
    21     8     9 ar  
    22     9    10 ar  
    23     9    20 1   
    24    10    11 ar  
    25    10    21 1   
    26    11    24 1   
@<TRIPOS>SUBSTRUCTURE
     1 A5H         1 TEMP              0 ****  ****    0 ROOT
