@<TRIPOS>MOLECULE
A5I
   30    30     1     0     0
SMALL
bcc


@<TRIPOS>ATOM
      1 N1          59.3100    31.6520    -6.8420 ns         1 A5I      -0.295900
      2 C7          60.1160    31.9340    -5.7960 cs         1 A5I       0.631400
      3 C8          54.7140    32.0940   -12.4160 c3         1 A5I       0.128200
      4 N2          60.0870    33.1760    -5.3310 nt         1 A5I      -0.592000
      5 C9          56.4850    37.2660    -7.8000 c3         1 A5I       0.128200
      6 C1          55.2680    35.0360   -10.3780 ca         1 A5I       0.102100
      7 C5          56.8320    34.5710    -8.5880 ca         1 A5I      -0.178000
      8 C6          57.8060    32.2860    -8.3840 ce         1 A5I       0.420800
      9 C4          56.9390    33.2550    -9.0390 ca         1 A5I      -0.111900
     10 C3          56.2120    32.8320   -10.1510 ca         1 A5I      -0.178000
     11 C2          55.3770    33.7170   -10.8230 ca         1 A5I       0.098600
     12 N           58.5310    32.6030    -7.3860 n2         1 A5I      -0.490300
     13 C           56.0000    35.4520    -9.2570 ca         1 A5I       0.098600
     14 O           54.6380    33.4090   -11.9050 os         1 A5I      -0.317400
     15 O2          55.8090    36.7460    -8.9280 os         1 A5I      -0.317400
     16 S           61.0930    30.7270    -5.1510 s          1 A5I      -0.663400
     17 H3          59.3220    30.7070    -7.2100 hn         1 A5I       0.349500
     18 H8          54.0520    32.0600   -13.2780 h1         1 A5I       0.042867
     19 H6          55.7260    31.8380   -12.7400 h1         1 A5I       0.042867
     20 H7          54.3800    31.3510   -11.6870 h1         1 A5I       0.042867
     21 H4          60.6730    33.4270    -4.5550 hn         1 A5I       0.339000
     22 H5          59.4920    33.8780    -5.7430 hn         1 A5I       0.339000
     23 H12         56.1920    38.3090    -7.7180 h1         1 A5I       0.042867
     24 H10         56.2000    36.7440    -6.8830 h1         1 A5I       0.042867
     25 H11         57.5700    37.2110    -7.9170 h1         1 A5I       0.042867
     26 H9          54.4760    36.7460   -10.6380 ho         1 A5I       0.440000
     27 H1          57.4000    34.8880    -7.7240 ha         1 A5I       0.144000
     28 H2          57.8090    31.2740    -8.7950 h4         1 A5I      -0.006200
     29 H           56.3120    31.8070   -10.4820 ha         1 A5I       0.144000
     30 O1          54.4540    35.8720   -11.0470 oh         1 A5I      -0.470100
@<TRIPOS>BOND
     1     1     2 1   
     2     1    12 1   
     3     1    17 1   
     4     2     4 1   
     5     2    16 2   
     6     3    14 1   
     7     3    18 1   
     8     3    19 1   
     9     3    20 1   
    10     4    21 1   
    11     4    22 1   
    12     5    15 1   
    13     5    23 1   
    14     5    24 1   
    15     5    25 1   
    16     6    11 ar  
    17     6    13 ar  
    18     6    30 1   
    19     7     9 ar  
    20     7    13 ar  
    21     7    27 1   
    22     8     9 1   
    23     8    12 2   
    24     8    28 1   
    25     9    10 ar  
    26    10    11 ar  
    27    10    29 1   
    28    11    14 1   
    29    13    15 1   
    30    26    30 1   
@<TRIPOS>SUBSTRUCTURE
     1 A5I         1 TEMP              0 ****  ****    0 ROOT
