@<TRIPOS>MOLECULE
A5I
   30    30     1     0     0
SMALL
No Charge or Current Charge


@<TRIPOS>ATOM
      1 N1          58.8040    31.7690    -6.0680 ns         1 A5I      -0.228900
      2 C7          60.1810    31.7120    -6.0280 cs         1 A5I       0.497400
      3 C8          55.2230    32.0640   -12.5990 c3         1 A5I       0.151400
      4 N2          60.7980    32.6720    -6.7340 nt         1 A5I      -0.525000
      5 C9          56.0040    37.4040    -7.5390 c3         1 A5I       0.151400
      6 C1          55.3020    35.1140   -10.4120 ca         1 A5I       0.102100
      7 C5          56.5360    34.6610    -8.3530 ca         1 A5I      -0.160000
      8 C6          57.5560    32.3680    -7.9340 ce         1 A5I       0.420800
      9 C4          56.7770    33.3340    -8.7760 ca         1 A5I      -0.111900
     10 C3          56.2740    32.9080   -10.0230 ca         1 A5I      -0.160000
     11 C2          55.5370    33.7890   -10.8470 ca         1 A5I       0.098600
     12 N           58.0600    32.7020    -6.7830 n2         1 A5I      -0.490300
     13 C           55.8010    35.5500    -9.1670 ca         1 A5I       0.098600
     14 O           55.0330    33.3910   -12.0760 os         1 A5I      -0.340600
     15 O2          55.5430    36.8580    -8.7880 os         1 A5I      -0.340600
     16 S           61.0470    30.5700    -5.1780 s          1 A5I      -0.663400
     17 H3          58.3370    31.0580    -5.5080 hn         1 A5I       0.349500
     18 H8          54.7420    31.9710   -13.5810 h1         1 A5I       0.042867
     19 H6          56.2900    31.8410   -12.7220 h1         1 A5I       0.042867
     20 H7          54.7790    31.3140   -11.9320 h1         1 A5I       0.042867
     21 H4          61.8060    32.7170    -6.7610 hn         1 A5I       0.339000
     22 H5          60.2420    33.3610    -7.2180 hn         1 A5I       0.339000
     23 H12         55.6890    38.4510    -7.4430 h1         1 A5I       0.042867
     24 H10         55.5880    36.8450    -6.6910 h1         1 A5I       0.042867
     25 H11         57.0990    37.3720    -7.4790 h1         1 A5I       0.042867
     26 H9          54.5520    36.8430   -10.6930 ho         1 A5I       0.479000
     27 H1          56.9240    34.9870    -7.3930 ha         1 A5I       0.126000
     28 H2          57.6950    31.3630    -8.3410 h4         1 A5I      -0.006200
     29 H           56.4670    31.8860   -10.3370 ha         1 A5I       0.126000
     30 O1          54.5900    35.9940   -11.1880 oh         1 A5I      -0.509100
@<TRIPOS>BOND
     1     1     2 1   
     2     1    12 1   
     3     1    17 1   
     4     2     4 1   
     5     2    16 2   
     6     3    14 1   
     7     3    18 1   
     8     3    19 1   
     9     3    20 1   
    10     4    21 1   
    11     4    22 1   
    12     5    15 1   
    13     5    23 1   
    14     5    24 1   
    15     5    25 1   
    16     6    11 ar  
    17     6    13 ar  
    18     6    30 1   
    19     7     9 ar  
    20     7    13 ar  
    21     7    27 1   
    22     8     9 1   
    23     8    12 2   
    24     8    28 1   
    25     9    10 ar  
    26    10    11 ar  
    27    10    29 1   
    28    11    14 1   
    29    13    15 1   
    30    26    30 1   
@<TRIPOS>SUBSTRUCTURE
     1 A5I         1 TEMP              0 ****  ****    0 ROOT
