@<TRIPOS>MOLECULE
A5J
   45    46     1     0     0
SMALL
abcg2


@<TRIPOS>ATOM
      1 N            1.6260     2.0870     1.0530 nh         1 A5J      -0.187400
      2 C1           3.7410    -0.3920    -0.7540 ca         1 A5J      -0.321300
      3 C2           3.8890     0.3390    -1.9290 ca         1 A5J       0.598300
      4 O2           4.5510    -0.1160    -3.0160 oh         1 A5J      -0.691300
      5 N3           3.3680     1.5370    -2.1180 nb         1 A5J      -0.852000
      6 C4           2.6300     2.1140    -1.1730 ca         1 A5J       0.676900
      7 N4           2.0470     3.2960    -1.4960 nv         1 A5J      -1.047900
      8 C5           2.4850     1.5090     0.1020 ca         1 A5J       0.158000
      9 C6           3.0410     0.2630     0.2610 ca         1 A5J      -0.070000
     10 C7           4.0690    -1.8620    -0.6910 c5         1 A5J       0.262600
     11 C8           4.2330    -2.4680     0.7110 c5         1 A5J      -0.136400
     12 C3           3.4640    -3.7840     0.6310 c5         1 A5J       0.109300
     13 O3           4.2340    -4.8290     0.0780 oh         1 A5J      -0.729000
     14 C9           2.3730    -3.4360    -0.3730 c5         1 A5J       0.168300
     15 O4           3.0140    -2.6050    -1.3180 os         1 A5J      -0.433000
     16 C10          1.1710    -2.7710     0.2830 c3         1 A5J       0.223600
     17 O5           0.2370    -2.4440    -0.7210 os         1 A5J      -0.582400
     18 ON1          1.5440     1.3480     2.2080 oh         1 A5J      -0.616800
     19 ON2          1.9820     3.3900     1.3670 oh         1 A5J      -0.616800
     20 O1A         -1.6760    -2.3660     0.9910 o          1 A5J      -0.869500
     21 O1B         -0.9580     0.9270     2.1330 o          1 A5J      -0.879500
     22 O1G         -2.1830     3.8240     1.5510 o          1 A5J      -0.932167
     23 O2A         -2.0500    -1.9270    -1.5580 o          1 A5J      -0.869500
     24 O2B         -3.0640     0.5710     0.6930 o          1 A5J      -0.879500
     25 O2G         -0.0480     4.3880     0.2440 o          1 A5J      -0.932167
     26 O3A         -0.7640    -0.2350    -0.1320 os         1 A5J      -0.712800
     27 O3B         -1.2280     2.1460    -0.1510 os         1 A5J      -0.729800
     28 O3G         -2.2680     4.2870    -0.9830 o          1 A5J      -0.932167
     29 PA          -1.2220    -1.7970    -0.3180 p5         1 A5J       1.472800
     30 PB          -1.5990     0.8780     0.7590 p5         1 A5J       1.570800
     31 PG          -1.4800     3.7880     0.2120 p5         1 A5J       1.393900
     32 H21          4.9590    -0.9690    -2.8400 ho         1 A5J       0.436000
     33 H41          2.0310     3.5030    -2.4810 hn         1 A5J       0.509500
     34 H42          1.2440     3.6330    -0.9630 hn         1 A5J       0.509500
     35 H61          2.8780    -0.2280     1.2080 ha         1 A5J       0.118000
     36 H1'1         4.9850    -2.0740    -1.2570 h1         1 A5J      -0.009300
     37 H2'1         5.2830    -2.6110     0.9680 hc         1 A5J       0.045200
     38 H2'2         3.8030    -1.8460     1.4940 hc         1 A5J       0.045200
     39 H3'1         3.0530    -4.0690     1.6080 h1         1 A5J       0.037700
     40 H3'2         5.0100    -4.9530     0.6330 ho         1 A5J       0.460000
     41 H4'1         2.0250    -4.3340    -0.8960 h1         1 A5J       0.058700
     42 H5'1         0.7440    -3.4720     1.0070 h1         1 A5J       0.021200
     43 H5'2         1.4740    -1.8770     0.8390 h1         1 A5J       0.021200
     44 HN11         0.5570     1.1380     2.2380 ho         1 A5J       0.567000
     45 HN21         1.1540     3.8790     1.0440 ho         1 A5J       0.567000
@<TRIPOS>BOND
     1     1     8 1   
     2     1    18 1   
     3     1    19 1   
     4     2     3 ar  
     5     2     9 ar  
     6     2    10 1   
     7     3     4 1   
     8     3     5 ar  
     9     4    32 1   
    10     5     6 ar  
    11     6     7 1   
    12     6     8 ar  
    13     7    33 1   
    14     7    34 1   
    15     8     9 ar  
    16     9    35 1   
    17    10    11 1   
    18    10    15 1   
    19    10    36 1   
    20    11    12 1   
    21    11    37 1   
    22    11    38 1   
    23    12    13 1   
    24    12    14 1   
    25    12    39 1   
    26    13    40 1   
    27    14    15 1   
    28    14    16 1   
    29    14    41 1   
    30    16    17 1   
    31    16    42 1   
    32    16    43 1   
    33    17    29 1   
    34    18    44 1   
    35    19    45 1   
    36    20    29 1   
    37    21    30 1   
    38    22    31 1   
    39    23    29 1   
    40    24    30 1   
    41    25    31 1   
    42    26    29 1   
    43    26    30 1   
    44    27    30 1   
    45    27    31 1   
    46    28    31 1   
@<TRIPOS>SUBSTRUCTURE
     1 A5J         1 TEMP              0 ****  ****    0 ROOT
