@<TRIPOS>MOLECULE
A5J
   45    46     1     0     0
SMALL
No Charge or Current Charge


@<TRIPOS>ATOM
      1 N            2.2390     2.3720     1.7220 nh         1 A5J      -0.187400
      2 C1           3.5290    -0.2950    -0.5900 ca         1 A5J      -0.321300
      3 C2           3.4560     0.4260    -1.7980 ca         1 A5J       0.598300
      4 O2           3.7420    -0.1670    -2.9700 oh         1 A5J      -0.691300
      5 N3           3.0740     1.6960    -1.9130 nb         1 A5J      -0.852000
      6 C4           2.7080     2.2980    -0.7910 ca         1 A5J       0.676900
      7 N4           2.2780     3.5030    -1.1720 nv         1 A5J      -1.047900
      8 C5           2.6870     1.7160     0.5180 ca         1 A5J       0.158000
      9 C6           3.1410     0.3840     0.5960 ca         1 A5J      -0.070000
     10 C7           3.9920    -1.7610    -0.6690 c5         1 A5J       0.262600
     11 C8           4.1470    -2.5100     0.7050 c5         1 A5J      -0.136400
     12 C3           3.5260    -3.8960     0.3890 c5         1 A5J       0.109300
     13 O3           4.4660    -4.7720    -0.2500 oh         1 A5J      -0.729000
     14 C9           2.3540    -3.4470    -0.5430 c5         1 A5J       0.168300
     15 O4           3.0090    -2.5000    -1.4260 os         1 A5J      -0.433000
     16 C10          1.1730    -2.7750     0.2310 c3         1 A5J       0.223600
     17 O5           0.0180    -2.6950    -0.6120 os         1 A5J      -0.582400
     18 ON1          1.5540     1.6910     2.7280 oh         1 A5J      -0.616800
     19 ON2          1.8560     3.7070     1.8040 oh         1 A5J      -0.616800
     20 O1A         -1.4190    -2.0910     1.3830 o          1 A5J      -0.869500
     21 O1B         -0.5830     1.0460     1.5540 o          1 A5J      -0.879500
     22 O1G         -2.4970     3.5910     0.4590 o          1 A5J      -0.932167
     23 O2A         -2.4470    -2.2260    -0.8780 o          1 A5J      -0.869500
     24 O2B         -2.8430     0.5300     0.5810 o          1 A5J      -0.879500
     25 O2G         -0.0660     3.8020     0.2330 o          1 A5J      -0.932167
     26 O3A         -0.6960    -0.4210    -0.4740 os         1 A5J      -0.712800
     27 O3B         -1.1710     1.8160    -0.8210 os         1 A5J      -0.729800
     28 O3G         -1.4980     4.0960    -1.6710 o          1 A5J      -0.932167
     29 PA          -1.2430    -1.8430    -0.0790 p5         1 A5J       1.472800
     30 PB          -1.3860     0.7510     0.3250 p5         1 A5J       1.570800
     31 PG          -1.3200     3.3250    -0.4100 p5         1 A5J       1.393900
     32 H21          3.6710    -1.1230    -2.7700 ho         1 A5J       0.436000
     33 H41          2.2110     3.5240    -2.1780 hn         1 A5J       0.509500
     34 H42          1.4020     3.7690    -0.7050 hn         1 A5J       0.509500
     35 H61          3.1640    -0.0820     1.5730 ha         1 A5J       0.118000
     36 H1'1         4.9370    -1.8200    -1.2250 h1         1 A5J      -0.009300
     37 H2'1         5.1940    -2.5750     1.0200 hc         1 A5J       0.045200
     38 H2'2         3.6030    -2.0710     1.5410 hc         1 A5J       0.045200
     39 H3'1         3.1440    -4.3740     1.3030 h1         1 A5J       0.037700
     40 H3'2         5.1920    -4.9340     0.3950 ho         1 A5J       0.460000
     41 H4'1         1.9610    -4.2880    -1.1290 h1         1 A5J       0.058700
     42 H5'1         0.9470    -3.3930     1.1100 h1         1 A5J       0.021200
     43 H5'2         1.4640    -1.7810     0.5900 h1         1 A5J       0.021200
     44 HN11         0.6750     1.4680     2.2480 ho         1 A5J       0.567000
     45 HN21         1.0110     3.7080     1.2160 ho         1 A5J       0.567000
@<TRIPOS>BOND
     1     1     8 1   
     2     1    18 1   
     3     1    19 1   
     4     2     3 ar  
     5     2     9 ar  
     6     2    10 1   
     7     3     4 1   
     8     3     5 ar  
     9     4    32 1   
    10     5     6 ar  
    11     6     7 1   
    12     6     8 ar  
    13     7    33 1   
    14     7    34 1   
    15     8     9 ar  
    16     9    35 1   
    17    10    11 1   
    18    10    15 1   
    19    10    36 1   
    20    11    12 1   
    21    11    37 1   
    22    11    38 1   
    23    12    13 1   
    24    12    14 1   
    25    12    39 1   
    26    13    40 1   
    27    14    15 1   
    28    14    16 1   
    29    14    41 1   
    30    16    17 1   
    31    16    42 1   
    32    16    43 1   
    33    17    29 1   
    34    18    44 1   
    35    19    45 1   
    36    20    29 1   
    37    21    30 1   
    38    22    31 1   
    39    23    29 1   
    40    24    30 1   
    41    25    31 1   
    42    26    29 1   
    43    26    30 1   
    44    27    30 1   
    45    27    31 1   
    46    28    31 1   
@<TRIPOS>SUBSTRUCTURE
     1 A5J         1 TEMP              0 ****  ****    0 ROOT
