@<TRIPOS>MOLECULE
A5K
   31    32     1     0     0
SMALL
bcc


@<TRIPOS>ATOM
      1 C10          1.4320    -0.7620     0.5660 ca         1 A5K      -0.002000
      2 C9           0.0840    -0.5610     0.7280 ca         1 A5K      -0.172900
      3 C8          -2.4810     1.8510    -0.5860 c3         1 A5K       0.219800
      4 C7          -3.4540     1.1230    -1.4960 c3         1 A5K       0.146800
      5 C4          -2.5780     0.6980     1.5730 c3         1 A5K       0.238800
      6 C5          -3.7490    -0.2940     1.4500 c3         1 A5K      -0.083400
      7 C6          -4.1480    -0.6520     0.0260 c3         1 A5K       0.170800
      8 C3          -0.5310     0.5890     0.1610 ca         1 A5K       0.747200
      9 C2           1.4900     1.1500    -0.8220 ca         1 A5K       0.522200
     10 C1           2.1820     0.1230    -0.2040 ca         1 A5K      -0.389600
     11 CL          -0.8100    -1.8230     1.5060 cl         1 A5K      -0.095400
     12 C            3.6400    -0.0970    -0.3840 c3         1 A5K       0.739200
     13 F2           4.2200     0.8830    -1.0850 f          1 A5K      -0.235967
     14 F1           4.2820    -0.1700     0.7950 f          1 A5K      -0.235967
     15 F            3.9090    -1.2460    -1.0200 f          1 A5K      -0.235967
     16 N            0.2040     1.3630    -0.6380 nb         1 A5K      -0.769000
     17 N1          -1.8260     0.9470     0.3520 nh         1 A5K      -0.782300
     18 N2          -4.5400     0.5010    -0.7680 n7         1 A5K      -0.819200
     19 H1           1.8860    -1.6360     1.0140 ha         1 A5K       0.159000
     20 H3          -3.0160     2.6130    -0.0150 h1         1 A5K       0.069700
     21 H4          -3.8800     1.8570    -2.1840 h1         1 A5K       0.037200
     22 H5          -2.8850     0.4030    -2.1080 h1         1 A5K       0.037200
     23 H6          -2.9680     1.6710     1.8840 h1         1 A5K       0.050700
     24 H7          -1.9000     0.3980     2.3690 h1         1 A5K       0.050700
     25 H8          -3.5080    -1.2220     1.9710 hc         1 A5K       0.049700
     26 H9          -4.6150     0.1310     1.9600 hc         1 A5K       0.049700
     27 H10         -3.3360    -1.2230    -0.4510 h1         1 A5K       0.033700
     28 H11         -5.0010    -1.3300     0.0850 h1         1 A5K       0.033700
     29 H12          1.9860     1.8410    -1.4920 h4         1 A5K       0.035100
     30 H13         -5.2500     0.2220    -1.4280 hn         1 A5K       0.359800
     31 H2          -1.7310     2.3570    -1.1870 h1         1 A5K       0.069700
@<TRIPOS>BOND
     1     1     2 ar  
     2     1    10 ar  
     3     1    19 1   
     4     2     8 ar  
     5     2    11 1   
     6     3     4 1   
     7     3    17 1   
     8     3    20 1   
     9     3    31 1   
    10     4    18 1   
    11     4    21 1   
    12     4    22 1   
    13     5     6 1   
    14     5    17 1   
    15     5    23 1   
    16     5    24 1   
    17     6     7 1   
    18     6    25 1   
    19     6    26 1   
    20     7    18 1   
    21     7    27 1   
    22     7    28 1   
    23     8    16 ar  
    24     8    17 1   
    25     9    10 ar  
    26     9    16 ar  
    27     9    29 1   
    28    10    12 1   
    29    12    13 1   
    30    12    14 1   
    31    12    15 1   
    32    18    30 1   
@<TRIPOS>SUBSTRUCTURE
     1 A5K         1 TEMP              0 ****  ****    0 ROOT
