@<TRIPOS>MOLECULE
A5K
   31    32     1     0     0
SMALL
No Charge or Current Charge


@<TRIPOS>ATOM
      1 C10          1.5450    -0.9820     0.2300 ca         1 A5K       0.016000
      2 C9           0.1510    -0.8410     0.2720 ca         1 A5K      -0.016000
      3 C8          -2.4190     1.5530    -0.9770 c3         1 A5K       0.219800
      4 C7          -3.7880     1.0540    -1.5370 c3         1 A5K       0.146800
      5 C4          -2.4680     0.7120     1.3730 c3         1 A5K       0.238800
      6 C5          -3.6550    -0.2640     1.5250 c3         1 A5K      -0.083400
      7 C6          -4.5100    -0.5220     0.2630 c3         1 A5K       0.170800
      8 C3          -0.4040     0.4390     0.0290 ca         1 A5K       0.681900
      9 C2           1.6790     1.3830    -0.2740 ca         1 A5K       0.456900
     10 C1           2.3260     0.1560    -0.0520 ca         1 A5K      -0.324300
     11 Cl          -0.8430    -2.2690     0.5950 cl         1 A5K      -0.187000
     12 C            3.8470     0.1010    -0.1090 c3         1 A5K       0.375300
     13 F2           4.3290     0.7350    -1.2020 f          1 A5K      -0.114667
     14 F1           4.4000     0.6950     0.9710 f          1 A5K      -0.114667
     15 F            4.3250    -1.1630    -0.1520 f          1 A5K      -0.114667
     16 N            0.3390     1.5290    -0.2380 nb         1 A5K      -0.769000
     17 N1          -1.7870     0.6930     0.0630 nh         1 A5K      -0.782300
     18 N2          -4.8080     0.7090    -0.5020 n7         1 A5K      -0.874400
     19 H1           1.9960    -1.9550     0.4140 ha         1 A5K       0.141000
     20 H3          -2.5660     2.5640    -0.5730 h1         1 A5K       0.069700
     21 H4          -4.1820     1.8430    -2.1910 h1         1 A5K       0.037200
     22 H5          -3.5990     0.1810    -2.1780 h1         1 A5K       0.037200
     23 H6          -2.8430     1.7280     1.5610 h1         1 A5K       0.050700
     24 H7          -1.7490     0.5060     2.1780 h1         1 A5K       0.050700
     25 H8          -3.2770    -1.2300     1.8780 hc         1 A5K       0.049700
     26 H9          -4.3050     0.1140     2.3230 hc         1 A5K       0.049700
     27 H10         -3.9990    -1.2560    -0.3760 h1         1 A5K       0.033700
     28 H11         -5.4480    -0.9910     0.5920 h1         1 A5K       0.033700
     29 H12          2.2520     2.2850    -0.4880 h4         1 A5K       0.035100
     30 H13         -5.6860     0.5360    -1.0080 hn         1 A5K       0.415000
     31 H2          -1.7460     1.6610    -1.8380 h1         1 A5K       0.069700
@<TRIPOS>BOND
     1     1     2 ar  
     2     1    10 ar  
     3     1    19 1   
     4     2     8 ar  
     5     2    11 1   
     6     3     4 1   
     7     3    17 1   
     8     3    20 1   
     9     3    31 1   
    10     4    18 1   
    11     4    21 1   
    12     4    22 1   
    13     5     6 1   
    14     5    17 1   
    15     5    23 1   
    16     5    24 1   
    17     6     7 1   
    18     6    25 1   
    19     6    26 1   
    20     7    18 1   
    21     7    27 1   
    22     7    28 1   
    23     8    16 ar  
    24     8    17 1   
    25     9    10 ar  
    26     9    16 ar  
    27     9    29 1   
    28    10    12 1   
    29    12    13 1   
    30    12    14 1   
    31    12    15 1   
    32    18    30 1   
@<TRIPOS>SUBSTRUCTURE
     1 A5K         1 TEMP              0 ****  ****    0 ROOT
