@<TRIPOS>MOLECULE
A5N
   18    17     1     0     0
SMALL
bcc


@<TRIPOS>ATOM
      1 N           11.4400    22.6860    45.0030 n8         1 A5N      -0.903800
      2 CA          10.5890    21.8690    44.1480 c3         1 A5N       0.022500
      3 C           10.5020    22.4590    42.7210 c          1 A5N       0.923600
      4 O           11.3870    23.2670    42.3790 o          1 A5N      -0.838300
      5 CB           9.2070    21.7580    44.7980 c3         1 A5N      -0.114700
      6 CG           8.2580    20.7560    44.1990 c2         1 A5N       0.704600
      7 OD1          8.8140    19.5580    44.0690 os         1 A5N      -0.548700
      8 ND2          7.0330    20.9470    43.9200 n2         1 A5N      -0.907100
      9 C1           7.9830    18.4690    43.5530 c          1 A5N       0.539100
     10 O2           7.4140    17.8370    44.4330 o          1 A5N      -0.533500
     11 O3           8.0600    18.3330    42.3390 o          1 A5N      -0.533500
     12 OXT          9.5620    22.0410    42.0170 o          1 A5N      -0.838300
     13 HD2          6.7880    21.9160    44.0850 hn         1 A5N       0.333400
     14 HB1C         8.7330    22.7420    44.8140 hc         1 A5N       0.015200
     15 HB2C         9.3480    21.4710    45.8470 hc         1 A5N       0.015200
     16 HA          10.9910    20.8510    44.0280 h1         1 A5N       0.032700
     17 HN1         11.8320    22.1170    45.7410 hn         1 A5N       0.315300
     18 HN2         12.2130    23.0240    44.4450 hn         1 A5N       0.315300
@<TRIPOS>BOND
     1     1     2 1   
     2     1    17 1   
     3     1    18 1   
     4     2     3 1   
     5     2     5 1   
     6     2    16 1   
     7     3     4 1   
     8     3    12 1   
     9     5     6 1   
    10     5    14 1   
    11     5    15 1   
    12     6     7 1   
    13     6     8 2   
    14     7     9 1   
    15     8    13 1   
    16     9    10 1   
    17     9    11 1   
@<TRIPOS>SUBSTRUCTURE
     1 A5N         1 TEMP              0 ****  ****    0 ROOT
