@<TRIPOS>MOLECULE
A5N
   18    17     1     0     0
SMALL
No Charge or Current Charge


@<TRIPOS>ATOM
      1 N           11.4130    22.4470    44.9190 n8         1 A5N      -1.014200
      2 CA          10.3630    21.9210    43.9700 c3         1 A5N       0.022500
      3 C           10.0210    22.8490    42.7230 c          1 A5N       0.713000
      4 O           10.7070    22.7300    41.7160 o          1 A5N      -0.733000
      5 CB           9.1050    21.4950    44.7790 c3         1 A5N      -0.114700
      6 CG           8.0570    20.7560    43.9510 c2         1 A5N       0.704600
      7 OD1          7.6620    19.5660    44.4500 os         1 A5N      -0.548700
      8 ND2          7.2700    21.3240    43.1140 n2         1 A5N      -0.907100
      9 C1           8.4640    18.4910    44.2940 c          1 A5N       0.859100
     10 O2           8.0980    17.4560    44.8220 o          1 A5N      -0.693500
     11 O3           9.4800    18.5800    43.6250 o          1 A5N      -0.693500
     12 OXT          9.0930    23.6450    42.8050 o          1 A5N      -0.733000
     13 HD2          7.6290    22.2820    42.9670 hn         1 A5N       0.333400
     14 HB1C         8.6500    22.3840    45.2340 hc         1 A5N       0.015200
     15 HB2C         9.4230    20.8650    45.6200 hc         1 A5N       0.015200
     16 HA          10.7830    21.0010    43.5400 h1         1 A5N       0.032700
     17 HN1         11.6450    21.7210    45.6060 hn         1 A5N       0.370500
     18 HN2         12.2910    22.5890    44.4030 hn         1 A5N       0.370500
@<TRIPOS>BOND
     1     1     2 1   
     2     1    17 1   
     3     1    18 1   
     4     2     3 1   
     5     2     5 1   
     6     2    16 1   
     7     3     4 1   
     8     3    12 1   
     9     5     6 1   
    10     5    14 1   
    11     5    15 1   
    12     6     7 1   
    13     6     8 2   
    14     7     9 1   
    15     8    13 1   
    16     9    10 1   
    17     9    11 1   
@<TRIPOS>SUBSTRUCTURE
     1 A5N         1 TEMP              0 ****  ****    0 ROOT
