@<TRIPOS>MOLECULE
A5P
   25    24     1     0     0
SMALL
abcg2


@<TRIPOS>ATOM
      1 C1           0.4260    -0.6410     4.2740 c3         1 A5P       0.117600
      2 O1          -0.2870    -0.4160     5.4690 oh         1 A5P      -0.720000
      3 C2          -0.3150     0.0230     3.1260 c3         1 A5P       0.138300
      4 O2          -0.4390     1.4190     3.3060 oh         1 A5P      -0.701000
      5 C3           0.3370    -0.3230     1.7830 c3         1 A5P       0.099300
      6 O3           1.6810     0.1160     1.7320 oh         1 A5P      -0.728000
      7 C4          -0.4610     0.2040     0.5780 c3         1 A5P       0.127300
      8 O4          -1.8320    -0.1120     0.6950 oh         1 A5P      -0.713000
      9 C5           0.1210    -0.3060    -0.7330 c3         1 A5P       0.223600
     10 O5          -0.5350     0.2910    -1.8080 os         1 A5P      -0.570400
     11 P            0.0520    -0.0680    -3.3700 p5         1 A5P       1.272900
     12 O1P         -0.0890    -1.5810    -3.5050 o          1 A5P      -0.926167
     13 O2P         -0.9060     0.7500    -4.2260 o          1 A5P      -0.926167
     14 O3P          1.4960     0.4250    -3.3680 o          1 A5P      -0.926167
     15 H11          1.4480    -0.2440     4.3370 h1         1 A5P       0.023200
     16 H12          0.5170    -1.7140     4.0540 h1         1 A5P       0.023200
     17 HO1          0.2220    -0.7930     6.1920 ho         1 A5P       0.480000
     18 HC2         -1.3340    -0.3710     3.1120 h1         1 A5P       0.092700
     19 HO2          0.4120     1.7770     3.5800 ho         1 A5P       0.482000
     20 HC3          0.3800    -1.4180     1.7120 h1         1 A5P       0.061700
     21 HO3          1.6930     1.0670     1.5780 ho         1 A5P       0.504000
     22 HC4         -0.4100     1.2990     0.5850 h1         1 A5P       0.074700
     23 HO4         -1.9390    -1.0580     0.5500 ho         1 A5P       0.487000
     24 H51          1.1980    -0.1020    -0.7540 h1         1 A5P       0.002200
     25 H52          0.0180    -1.4050    -0.7520 h1         1 A5P       0.002200
@<TRIPOS>BOND
     1     1     2 1   
     2     1     3 1   
     3     1    15 1   
     4     1    16 1   
     5     2    17 1   
     6     3     4 1   
     7     3     5 1   
     8     3    18 1   
     9     4    19 1   
    10     5     6 1   
    11     5     7 1   
    12     5    20 1   
    13     6    21 1   
    14     7     8 1   
    15     7     9 1   
    16     7    22 1   
    17     8    23 1   
    18     9    10 1   
    19     9    24 1   
    20     9    25 1   
    21    10    11 1   
    22    11    12 1   
    23    11    13 1   
    24    11    14 1   
@<TRIPOS>SUBSTRUCTURE
     1 A5P         1 TEMP              0 ****  ****    0 ROOT
