@<TRIPOS>MOLECULE
A5P
   25    24     1     0     0
SMALL
No Charge or Current Charge


@<TRIPOS>ATOM
      1 C1           0.2210    -0.1490     4.2840 c3         1 A5P       0.117600
      2 O1           0.0980     0.9490     5.2070 oh         1 A5P      -0.720000
      3 C2           0.0940     0.3730     2.8270 c3         1 A5P       0.138300
      4 O2           1.0360     1.4530     2.6620 oh         1 A5P      -0.701000
      5 C3           0.3620    -0.7260     1.7520 c3         1 A5P       0.099300
      6 O3           1.7780    -0.9800     1.7410 oh         1 A5P      -0.728000
      7 C4          -0.1330    -0.3290     0.3220 c3         1 A5P       0.127300
      8 O4          -1.5580    -0.1010     0.3390 oh         1 A5P      -0.713000
      9 C5           0.2450    -1.4070    -0.7560 c3         1 A5P       0.223600
     10 O5          -0.4350    -1.2460    -2.0250 os         1 A5P      -0.570400
     11 P           -0.6950     0.1660    -2.7540 p5         1 A5P       1.272900
     12 O1P          0.5700     0.9450    -2.8150 o          1 A5P      -0.926167
     13 O2P         -1.1810    -0.0940    -4.1350 o          1 A5P      -0.926167
     14 O3P         -1.7360     0.9140    -1.9990 o          1 A5P      -0.926167
     15 H11          1.1890    -0.6500     4.4160 h1         1 A5P       0.023200
     16 H12         -0.5670    -0.8930     4.4660 h1         1 A5P       0.023200
     17 HO1          0.1160     0.5670     6.1160 ho         1 A5P       0.480000
     18 HC2         -0.9350     0.7400     2.7050 h1         1 A5P       0.092700
     19 HO2          1.0200     1.9090     3.5390 ho         1 A5P       0.482000
     20 HC3         -0.1790    -1.6360     2.0470 h1         1 A5P       0.061700
     21 HO3          2.1640    -0.1070     2.0040 ho         1 A5P       0.504000
     22 HC4          0.3790     0.6030     0.0460 h1         1 A5P       0.074700
     23 HO4         -1.7410     0.2990    -0.5750 ho         1 A5P       0.487000
     24 H51          1.3310    -1.3810    -0.9170 h1         1 A5P       0.002200
     25 H52          0.0100    -2.4000    -0.3500 h1         1 A5P       0.002200
@<TRIPOS>BOND
     1     1     2 1   
     2     1     3 1   
     3     1    15 1   
     4     1    16 1   
     5     2    17 1   
     6     3     4 1   
     7     3     5 1   
     8     3    18 1   
     9     4    19 1   
    10     5     6 1   
    11     5     7 1   
    12     5    20 1   
    13     6    21 1   
    14     7     8 1   
    15     7     9 1   
    16     7    22 1   
    17     8    23 1   
    18     9    10 1   
    19     9    24 1   
    20     9    25 1   
    21    10    11 1   
    22    11    12 1   
    23    11    13 1   
    24    11    14 1   
@<TRIPOS>SUBSTRUCTURE
     1 A5P         1 TEMP              0 ****  ****    0 ROOT
