@<TRIPOS>MOLECULE
A5Q
   22    23     1     0     0
SMALL
No Charge or Current Charge


@<TRIPOS>ATOM
      1 C8           3.7410     0.0120    -0.0090 c3         1 A5Q       0.357300
      2 C7           0.1240    -1.2360     0.4480 ca         1 A5Q      -0.111000
      3 C4           1.4560     0.9850    -0.6250 ca         1 A5Q      -0.059500
      4 C5           2.2100    -0.0620    -0.0550 ca         1 A5Q      -0.199300
      5 C6           1.5280    -1.1740     0.4830 ca         1 A5Q      -0.059500
      6 C3           0.0520     0.9200    -0.6580 ca         1 A5Q      -0.111000
      7 C2          -0.6320    -0.1790    -0.0980 ca         1 A5Q      -0.063500
      8 C1          -2.0970    -0.2850    -0.1720 cc         1 A5Q       0.156500
      9 F2           4.1690     0.6160     1.1220 f          1 A5Q      -0.114000
     10 F            4.3180    -1.2110    -0.0470 f          1 A5Q      -0.114000
     11 F1           4.2530     0.7110    -1.0490 f          1 A5Q      -0.114000
     12 C           -2.9150     0.7770     0.1530 cd         1 A5Q       0.207000
     13 N           -2.5950     2.0540     0.5980 nv         1 A5Q      -1.053000
     14 N2          -2.7290    -1.4620    -0.4940 nc         1 A5Q      -0.260000
     15 N1          -4.0350    -1.3300    -0.4700 nd         1 A5Q      -0.127100
     16 S           -4.5580     0.2020    -0.0380 ss         1 A5Q       0.172100
     17 H2           1.9550     1.8530    -1.0530 ha         1 A5Q       0.131000
     18 H3           2.0810    -1.9980     0.9310 ha         1 A5Q       0.131000
     19 H4          -0.5010     1.7260    -1.1340 ha         1 A5Q       0.129500
     20 H6          -1.6400     2.2640     0.8870 hn         1 A5Q       0.486000
     21 H7          -3.3250     2.6750     0.9490 hn         1 A5Q       0.486000
     22 H1          -0.3790    -2.1080     0.8610 ha         1 A5Q       0.129500
@<TRIPOS>BOND
     1     1     4 1   
     2     1     9 1   
     3     1    10 1   
     4     1    11 1   
     5     2     5 ar  
     6     2     7 ar  
     7     2    22 1   
     8     3     4 ar  
     9     3     6 ar  
    10     3    17 1   
    11     4     5 ar  
    12     5    18 1   
    13     6     7 ar  
    14     6    19 1   
    15     7     8 1   
    16     8    12 2   
    17     8    14 1   
    18    12    13 1   
    19    12    16 1   
    20    13    20 1   
    21    13    21 1   
    22    14    15 2   
    23    15    16 1   
@<TRIPOS>SUBSTRUCTURE
     1 A5Q         1 TEMP              0 ****  ****    0 ROOT
