@<TRIPOS>MOLECULE
A5Q
   22    23     1     0     0
SMALL
bcc


@<TRIPOS>ATOM
      1 C8           3.7020    -0.0220    -0.0200 c3         1 A5Q       0.721200
      2 C7           0.1560    -1.2570     0.3770 ca         1 A5Q      -0.129000
      3 C4           1.4840     1.0000    -0.5290 ca         1 A5Q      -0.077500
      4 C5           2.2100    -0.0910    -0.0680 ca         1 A5Q      -0.199300
      5 C6           1.5390    -1.2220     0.3830 ca         1 A5Q      -0.077500
      6 C3           0.1000     0.9600    -0.5380 ca         1 A5Q      -0.129000
      7 C2          -0.5870    -0.1650    -0.0770 ca         1 A5Q      -0.063500
      8 C1          -2.0490    -0.2310    -0.0890 cc         1 A5Q       0.221800
      9 F2           4.1350     0.6080     1.0840 f          1 A5Q      -0.235300
     10 F            4.2680    -1.2340    -0.0170 f          1 A5Q      -0.235300
     11 F1           4.2120     0.6460    -1.0620 f          1 A5Q      -0.235300
     12 C           -2.9440     0.8100     0.1430 cd         1 A5Q       0.148200
     13 N           -2.6910     2.1030     0.4080 nv         1 A5Q      -0.804200
     14 N2          -2.6670    -1.4110    -0.3230 nc         1 A5Q      -0.260000
     15 N1          -3.9280    -1.4040    -0.3190 nd         1 A5Q      -0.127100
     16 S           -4.5200     0.1610     0.0140 ss         1 A5Q       0.027200
     17 H2           1.9810     1.8870    -0.8990 ha         1 A5Q       0.149000
     18 H3           2.0800    -2.0840     0.7480 ha         1 A5Q       0.149000
     19 H4          -0.4370     1.8070    -0.9440 ha         1 A5Q       0.147500
     20 H6          -1.7790     2.3440     0.7640 hn         1 A5Q       0.430800
     21 H7          -3.4320     2.6880     0.7570 hn         1 A5Q       0.430800
     22 H1          -0.3510    -2.1410     0.7380 ha         1 A5Q       0.147500
@<TRIPOS>BOND
     1     1     4 1   
     2     1     9 1   
     3     1    10 1   
     4     1    11 1   
     5     2     5 ar  
     6     2     7 ar  
     7     2    22 1   
     8     3     4 ar  
     9     3     6 ar  
    10     3    17 1   
    11     4     5 ar  
    12     5    18 1   
    13     6     7 ar  
    14     6    19 1   
    15     7     8 1   
    16     8    12 2   
    17     8    14 1   
    18    12    13 1   
    19    12    16 1   
    20    13    20 1   
    21    13    21 1   
    22    14    15 2   
    23    15    16 1   
@<TRIPOS>SUBSTRUCTURE
     1 A5Q         1 TEMP              0 ****  ****    0 ROOT
