@<TRIPOS>MOLECULE
A5R
   40    39     1     0     0
SMALL
bcc


@<TRIPOS>ATOM
      1 C            0.6460     1.7370    -0.2470 c          1 A5R       0.529100
      2 N           -1.3770     3.0820     0.3410 n8         1 A5R      -0.899800
      3 O            0.9960     2.5850    -1.0370 o          1 A5R      -0.511100
      4 CA          -0.7490     1.7810     0.3820 c3         1 A5R       0.057500
      5 CB          -1.6440     0.7410    -0.3060 c3         1 A5R      -0.059400
      6 CD          -3.8620    -0.4370    -0.3080 c3         1 A5R       0.025300
      7 NE          -5.1340    -0.5570     0.3840 nu         1 A5R      -0.398100
      8 CG          -2.9800     0.5750     0.4030 c3         1 A5R      -0.091400
      9 CZ          -6.1050    -1.3880     0.0330 cz         1 A5R       0.526300
     10 NH1         -5.9370    -2.2300    -0.9780 nv         1 A5R      -0.514200
     11 NH2         -7.2540    -1.3810     0.6970 nv         1 A5R      -0.514200
     12 C1           6.2650    -1.3930     0.2410 c          1 A5R       0.928600
     13 O1           5.8230    -2.2590     1.0210 o          1 A5R      -0.842300
     14 C2           5.3150    -0.2650    -0.1970 c3         1 A5R      -0.207400
     15 C3           3.8600    -0.4170     0.2140 c3         1 A5R      -0.053400
     16 C4           2.9970     0.7430    -0.2690 c3         1 A5R      -0.075400
     17 C5           1.5460     0.6000     0.1640 c3         1 A5R      -0.169400
     18 H1N         -0.8470     3.7430     0.8960 hn         1 A5R       0.359300
     19 H2N         -1.3580     3.4380    -0.6080 hn         1 A5R       0.359300
     20 HA          -0.6380     1.4860     1.4310 h1         1 A5R       0.075700
     21 H1B         -1.8060     1.0470    -1.3450 hc         1 A5R       0.054200
     22 H2B         -1.1340    -0.2240    -0.3450 hc         1 A5R       0.054200
     23 H1D         -3.3600    -1.4080    -0.3310 h1         1 A5R       0.066700
     24 H2D         -4.0280    -0.1240    -1.3440 h1         1 A5R       0.066700
     25 HNE         -5.3240     0.0910     1.1320 hn         1 A5R       0.322700
     26 H1G         -2.8090     0.2450     1.4320 hc         1 A5R       0.068200
     27 H2G         -3.4910     1.5380     0.4540 hc         1 A5R       0.068200
     28 H1H1        -5.0610    -2.3090    -1.4670 hn         1 A5R       0.326950
     29 H2H1        -6.6560    -2.8870    -1.2270 hn         1 A5R       0.326950
     30 H1H2        -7.4280    -0.7160     1.4320 hn         1 A5R       0.326950
     31 H2H2        -8.0130    -1.9850     0.4340 hn         1 A5R       0.326950
     32 O3           7.4250    -1.3390    -0.2210 o          1 A5R      -0.842300
     33 H12          5.7090     0.6780     0.2030 hc         1 A5R       0.019700
     34 H22          5.3830    -0.1570    -1.2850 hc         1 A5R       0.019700
     35 H13          3.4590    -1.3560    -0.1810 hc         1 A5R       0.035700
     36 H23          3.7880    -0.4960     1.3030 hc         1 A5R       0.035700
     37 H14          3.4020     1.6830     0.1190 hc         1 A5R       0.044200
     38 H24          3.0550     0.8130    -1.3590 hc         1 A5R       0.044200
     39 H15          1.4760     0.4860     1.2510 hc         1 A5R       0.054700
     40 H25          1.1240    -0.3280    -0.2390 hc         1 A5R       0.054700
@<TRIPOS>BOND
     1     1     3 2   
     2     1     4 1   
     3     1    17 1   
     4     2     4 1   
     5     2    18 1   
     6     2    19 1   
     7     4     5 1   
     8     4    20 1   
     9     5     8 1   
    10     5    21 1   
    11     5    22 1   
    12     6     7 1   
    13     6     8 1   
    14     6    23 1   
    15     6    24 1   
    16     7     9 2   
    17     7    25 1   
    18     8    26 1   
    19     8    27 1   
    20     9    10 1   
    21     9    11 1   
    22    10    28 1   
    23    10    29 1   
    24    11    30 1   
    25    11    31 1   
    26    12    13 1   
    27    12    14 1   
    28    12    32 1   
    29    14    15 1   
    30    14    33 1   
    31    14    34 1   
    32    15    16 1   
    33    15    35 1   
    34    15    36 1   
    35    16    17 1   
    36    16    37 1   
    37    16    38 1   
    38    17    39 1   
    39    17    40 1   
@<TRIPOS>SUBSTRUCTURE
     1 A5R         1 TEMP              0 ****  ****    0 ROOT
