@<TRIPOS>MOLECULE
A5R
   40    39     1     0     0
SMALL
No Charge or Current Charge


@<TRIPOS>ATOM
      1 C            0.7000     1.7500    -1.1540 c          1 A5R       0.529100
      2 N           -1.0970     3.0930     0.1620 n8         1 A5R      -1.010200
      3 O            0.9420     2.6940    -1.9000 o          1 A5R      -0.511100
      4 CA          -0.5530     1.7370    -0.2040 c3         1 A5R       0.057500
      5 CB          -1.6780     0.8350    -0.7830 c3         1 A5R      -0.059400
      6 CD          -3.8850    -0.4220    -0.3750 c3         1 A5R       0.054600
      7 NE          -4.9320    -0.6930     0.6280 nu         1 A5R      -0.883000
      8 CG          -2.8160     0.5150     0.2170 c3         1 A5R      -0.091400
      9 CZ          -6.0070    -1.4450     0.5190 cz         1 A5R       0.931600
     10 NH1         -6.2660    -2.0760    -0.5890 nv         1 A5R      -0.614800
     11 NH2         -6.8110    -1.5530     1.5340 nv         1 A5R      -0.614800
     12 C1           5.9070    -1.3890     0.9620 c          1 A5R       0.718000
     13 O1           5.6640    -2.2430     1.8010 o          1 A5R      -0.737000
     14 C2           4.9970    -0.1490     0.9030 c3         1 A5R      -0.207400
     15 C3           3.7950    -0.4100    -0.0370 c3         1 A5R      -0.053400
     16 C4           2.8360     0.7960    -0.1450 c3         1 A5R      -0.075400
     17 C5           1.6360     0.5320    -1.0850 c3         1 A5R      -0.169400
     18 H1N         -0.3510     3.6580     0.5910 hn         1 A5R       0.414500
     19 H2N         -1.3060     3.6130    -0.7000 hn         1 A5R       0.414500
     20 HA          -0.2050     1.2630     0.7260 h1         1 A5R       0.075700
     21 H1B         -2.1010     1.3110    -1.6780 hc         1 A5R       0.054200
     22 H2B         -1.2420    -0.1140    -1.1180 hc         1 A5R       0.054200
     23 H1D         -3.4060    -1.3610    -0.6890 h1         1 A5R       0.066700
     24 H2D         -4.3230     0.0520    -1.2660 h1         1 A5R       0.066700
     25 HNE         -4.8130    -0.2330     1.5240 hn         1 A5R       0.373000
     26 H1G         -2.3860     0.0510     1.1140 hc         1 A5R       0.068200
     27 H2G         -3.2960     1.4480     0.5360 hc         1 A5R       0.068200
     28 H1H1        -5.6510    -1.9970    -1.3800 hn         1 A5R       0.377250
     29 H2H1        -7.0800    -2.6570    -0.7000 hn         1 A5R       0.377250
     30 H1H2        -6.6290    -1.0770     2.4020 hn         1 A5R       0.377250
     31 H2H2        -7.6430    -2.1180     1.4960 hn         1 A5R       0.377250
     32 O3           6.8020    -1.4870     0.1360 o          1 A5R      -0.737000
     33 H12          4.5670     0.0570     1.8910 hc         1 A5R       0.019700
     34 H22          5.5380     0.7020     0.4710 hc         1 A5R       0.019700
     35 H13          4.1690    -0.6630    -1.0370 hc         1 A5R       0.035700
     36 H23          3.2380    -1.2830     0.3250 hc         1 A5R       0.035700
     37 H14          2.4620     1.0500     0.8560 hc         1 A5R       0.044200
     38 H24          3.3930     1.6690    -0.5080 hc         1 A5R       0.044200
     39 H15          1.0900    -0.3300    -0.6830 hc         1 A5R       0.054700
     40 H25          2.0150     0.3090    -2.0900 hc         1 A5R       0.054700
@<TRIPOS>BOND
     1     1     3 2   
     2     1     4 1   
     3     1    17 1   
     4     2     4 1   
     5     2    18 1   
     6     2    19 1   
     7     4     5 1   
     8     4    20 1   
     9     5     8 1   
    10     5    21 1   
    11     5    22 1   
    12     6     7 1   
    13     6     8 1   
    14     6    23 1   
    15     6    24 1   
    16     7     9 2   
    17     7    25 1   
    18     8    26 1   
    19     8    27 1   
    20     9    10 1   
    21     9    11 1   
    22    10    28 1   
    23    10    29 1   
    24    11    30 1   
    25    11    31 1   
    26    12    13 1   
    27    12    14 1   
    28    12    32 1   
    29    14    15 1   
    30    14    33 1   
    31    14    34 1   
    32    15    16 1   
    33    15    35 1   
    34    15    36 1   
    35    16    17 1   
    36    16    37 1   
    37    16    38 1   
    38    17    39 1   
    39    17    40 1   
@<TRIPOS>SUBSTRUCTURE
     1 A5R         1 TEMP              0 ****  ****    0 ROOT
