@<TRIPOS>MOLECULE
A5S
   53    52     1     0     0
SMALL
No Charge or Current Charge


@<TRIPOS>ATOM
      1 C1         126.4480   162.8730   165.4830 c          1 A5S       0.589700
      2 C2         127.6470   163.1280   166.3690 c3         1 A5S      -0.280400
      3 C3         127.6560   164.6070   166.7060 c          1 A5S       0.578100
      4 C4         128.5730   165.5010   165.8740 c3         1 A5S      -0.201100
      5 O1         126.9630   165.0630   167.6040 o          1 A5S      -0.517100
      6 O5         125.3230   162.7030   165.9300 o          1 A5S      -0.518100
      7 O40        123.5910   163.5790   160.2750 o          1 A5S      -0.584100
      8 C39        122.7090   163.5570   161.1190 c          1 A5S       0.598100
      9 N41        122.9760   163.7200   162.4600 ns         1 A5S      -0.519900
     10 C42        124.3180   163.8900   163.0300 c3         1 A5S       0.109000
     11 C43        125.1550   162.5930   162.9700 c3         1 A5S       0.025600
     12 S44        126.8390   162.8410   163.7060 ss         1 A5S      -0.304600
     13 C38        121.2290   163.4010   160.7730 c3         1 A5S      -0.181400
     14 C37        120.8370   161.9280   160.5350 c3         1 A5S       0.116000
     15 N36        121.5170   161.3090   159.3960 ns         1 A5S      -0.518900
     16 C34        121.2230   161.5420   158.0680 c          1 A5S       0.557100
     17 O35        120.3180   162.2990   157.7340 o          1 A5S      -0.644100
     18 C32        122.0440   160.6920   157.0390 c3         1 A5S       0.118300
     19 O33        122.2060   159.3250   157.5080 oh         1 A5S      -0.614000
     20 C29        123.4240   161.3370   156.6120 c3         1 A5S      -0.050000
     21 C31        123.2720   162.8820   156.4830 c3         1 A5S      -0.077600
     22 C30        124.5480   161.0600   157.6570 c3         1 A5S      -0.077600
     23 C28        123.8570   160.8260   155.1940 c3         1 A5S       0.253600
     24 O27        124.1520   159.4240   155.2050 os         1 A5S      -0.581400
     25 P24        124.5430   158.7090   153.8190 p5         1 A5S       1.274900
     26 O23        123.4150   158.8250   152.8540 o          1 A5S      -0.931500
     27 O25        125.7650   159.3410   153.2520 o          1 A5S      -0.931500
     28 O26        124.8160   157.2690   154.0790 o          1 A5S      -0.931500
     29 H1         127.5320   162.5530   167.2940 hc         1 A5S       0.092700
     30 H2         128.5550   162.8900   165.8050 hc         1 A5S       0.092700
     31 H3         128.5080   166.5570   166.1620 hc         1 A5S       0.065700
     32 H4         129.6000   165.1260   165.9520 hc         1 A5S       0.065700
     33 H5         128.3530   165.3550   164.8110 hc         1 A5S       0.065700
     34 H6         122.1820   163.7100   163.0900 hn         1 A5S       0.306500
     35 H7         124.8390   164.6850   162.4810 h1         1 A5S       0.058700
     36 H8         124.2110   164.2160   164.0720 h1         1 A5S       0.058700
     37 H9         124.6350   161.7840   163.4980 h1         1 A5S       0.105700
     38 H10        125.2750   162.2920   161.9220 h1         1 A5S       0.105700
     39 H11        121.0100   163.9760   159.8670 hc         1 A5S       0.069700
     40 H12        120.6150   163.7650   161.6040 hc         1 A5S       0.069700
     41 H13        119.7530   161.8640   160.3690 h1         1 A5S       0.038700
     42 H14        121.0680   161.3420   161.4340 h1         1 A5S       0.038700
     43 H15        122.2470   160.6260   159.5720 hn         1 A5S       0.337500
     44 H16        121.4130   160.6830   156.1390 h1         1 A5S       0.081700
     45 H17        121.3230   158.8970   157.4870 ho         1 A5S       0.423000
     46 H18        123.0640   163.3530   157.4510 hc         1 A5S       0.025533
     47 H19        124.1930   163.3360   156.0960 hc         1 A5S       0.025533
     48 H20        122.4590   163.1410   155.7940 hc         1 A5S       0.025533
     49 H21        124.2700   161.4420   158.6460 hc         1 A5S       0.025533
     50 H22        124.7570   159.9890   157.7590 hc         1 A5S       0.025533
     51 H23        125.4830   161.5510   157.3600 hc         1 A5S       0.025533
     52 H24        124.7450   161.3870   154.8720 h1         1 A5S       0.005200
     53 H25        123.0540   161.0430   154.4760 h1         1 A5S       0.005200
@<TRIPOS>BOND
     1     1     2 1   
     2     1     6 2   
     3     1    12 1   
     4     2     3 1   
     5     2    29 1   
     6     2    30 1   
     7     3     4 1   
     8     3     5 2   
     9     4    31 1   
    10     4    32 1   
    11     4    33 1   
    12     7     8 2   
    13     8     9 1   
    14     8    13 1   
    15     9    10 1   
    16     9    34 1   
    17    10    11 1   
    18    10    35 1   
    19    10    36 1   
    20    11    12 1   
    21    11    37 1   
    22    11    38 1   
    23    13    14 1   
    24    13    39 1   
    25    13    40 1   
    26    14    15 1   
    27    14    41 1   
    28    14    42 1   
    29    15    16 1   
    30    15    43 1   
    31    16    17 2   
    32    16    18 1   
    33    18    19 1   
    34    18    20 1   
    35    18    44 1   
    36    19    45 1   
    37    20    21 1   
    38    20    22 1   
    39    20    23 1   
    40    21    46 1   
    41    21    47 1   
    42    21    48 1   
    43    22    49 1   
    44    22    50 1   
    45    22    51 1   
    46    23    24 1   
    47    23    52 1   
    48    23    53 1   
    49    24    25 1   
    50    25    26 1   
    51    25    27 1   
    52    25    28 1   
@<TRIPOS>SUBSTRUCTURE
     1 A5S         1 TEMP              0 ****  ****    0 ROOT
