@<TRIPOS>MOLECULE
A5S
   53    52     1     0     0
SMALL
abcg2


@<TRIPOS>ATOM
      1 C1         126.5020   162.2040   164.2630 c          1 A5S       0.589700
      2 C2         127.8880   162.2440   164.8910 c3         1 A5S      -0.280400
      3 C3         127.9620   163.3880   165.9010 c          1 A5S       0.578100
      4 C4         128.2850   164.7440   165.3470 c3         1 A5S      -0.201100
      5 O1         127.7530   163.1860   167.0780 o          1 A5S      -0.517100
      6 O5         125.5100   161.9130   164.8900 o          1 A5S      -0.518100
      7 O40        122.8840   164.7900   160.1980 o          1 A5S      -0.584100
      8 C39        122.1490   164.1710   160.9680 c          1 A5S       0.598100
      9 N41        122.5770   163.7120   162.1640 ns         1 A5S      -0.519900
     10 C42        123.9620   163.7880   162.5900 c3         1 A5S       0.109000
     11 C43        124.7330   162.5400   162.1580 c3         1 A5S       0.025600
     12 S44        126.5020   162.6330   162.5460 ss         1 A5S      -0.304600
     13 C38        120.7070   163.8580   160.6170 c3         1 A5S      -0.181400
     14 C37        120.4320   162.3520   160.5020 c3         1 A5S       0.116000
     15 N36        121.3710   161.6650   159.6330 ns         1 A5S      -0.518900
     16 C34        121.2620   161.6380   158.2960 c          1 A5S       0.557100
     17 O35        120.3530   162.1970   157.6800 o          1 A5S      -0.644100
     18 C32        122.3520   160.8340   157.5670 c3         1 A5S       0.118300
     19 O33        122.8230   159.7730   158.3960 oh         1 A5S      -0.614000
     20 C29        123.5570   161.6980   157.0990 c3         1 A5S      -0.050000
     21 C31        123.0420   162.9750   156.4160 c3         1 A5S      -0.077600
     22 C30        124.4600   162.0880   158.2730 c3         1 A5S      -0.077600
     23 C28        124.3650   160.9390   156.0270 c3         1 A5S       0.253600
     24 O27        125.1210   159.8640   156.5430 os         1 A5S      -0.581400
     25 P24        125.5910   158.6470   155.4860 p5         1 A5S       1.274900
     26 O23        124.2940   158.0030   154.9990 o          1 A5S      -0.931500
     27 O25        126.3780   159.3400   154.3750 o          1 A5S      -0.931500
     28 O26        126.4310   157.7580   156.3940 o          1 A5S      -0.931500
     29 H1         128.0350   161.3020   165.4200 hc         1 A5S       0.092700
     30 H2         128.6530   162.3680   164.1250 hc         1 A5S       0.092700
     31 H3         128.2280   165.5010   166.1260 hc         1 A5S       0.065700
     32 H4         129.2890   164.7260   164.9160 hc         1 A5S       0.065700
     33 H5         127.5980   164.9860   164.5320 hc         1 A5S       0.065700
     34 H6         121.9350   163.1940   162.7430 hn         1 A5S       0.306500
     35 H7         124.4090   164.6750   162.1470 h1         1 A5S       0.058700
     36 H8         123.9880   163.8900   163.6740 h1         1 A5S       0.058700
     37 H9         124.3320   161.6450   162.6320 h1         1 A5S       0.105700
     38 H10        124.6860   162.4160   161.0780 h1         1 A5S       0.105700
     39 H11        120.4960   164.3460   159.6680 hc         1 A5S       0.069700
     40 H12        120.0400   164.2770   161.3750 hc         1 A5S       0.069700
     41 H13        119.4240   162.2100   160.1120 h1         1 A5S       0.038700
     42 H14        120.4810   161.8730   161.4790 h1         1 A5S       0.038700
     43 H15        122.1280   161.1420   160.0440 hn         1 A5S       0.337500
     44 H16        121.8660   160.4320   156.6740 h1         1 A5S       0.081700
     45 H17        122.1120   159.1280   158.4970 ho         1 A5S       0.423000
     46 H18        122.5050   163.6140   157.1140 hc         1 A5S       0.025533
     47 H19        123.8900   163.5410   156.0260 hc         1 A5S       0.025533
     48 H20        122.3740   162.7450   155.5830 hc         1 A5S       0.025533
     49 H21        123.9290   162.7280   158.9770 hc         1 A5S       0.025533
     50 H22        124.8290   161.2100   158.8000 hc         1 A5S       0.025533
     51 H23        125.3210   162.6460   157.8980 hc         1 A5S       0.025533
     52 H24        125.0400   161.6630   155.5530 h1         1 A5S       0.005200
     53 H25        123.6720   160.5840   155.2550 h1         1 A5S       0.005200
@<TRIPOS>BOND
     1     1     2 1   
     2     1     6 2   
     3     1    12 1   
     4     2     3 1   
     5     2    29 1   
     6     2    30 1   
     7     3     4 1   
     8     3     5 2   
     9     4    31 1   
    10     4    32 1   
    11     4    33 1   
    12     7     8 2   
    13     8     9 1   
    14     8    13 1   
    15     9    10 1   
    16     9    34 1   
    17    10    11 1   
    18    10    35 1   
    19    10    36 1   
    20    11    12 1   
    21    11    37 1   
    22    11    38 1   
    23    13    14 1   
    24    13    39 1   
    25    13    40 1   
    26    14    15 1   
    27    14    41 1   
    28    14    42 1   
    29    15    16 1   
    30    15    43 1   
    31    16    17 2   
    32    16    18 1   
    33    18    19 1   
    34    18    20 1   
    35    18    44 1   
    36    19    45 1   
    37    20    21 1   
    38    20    22 1   
    39    20    23 1   
    40    21    46 1   
    41    21    47 1   
    42    21    48 1   
    43    22    49 1   
    44    22    50 1   
    45    22    51 1   
    46    23    24 1   
    47    23    52 1   
    48    23    53 1   
    49    24    25 1   
    50    25    26 1   
    51    25    27 1   
    52    25    28 1   
@<TRIPOS>SUBSTRUCTURE
     1 A5S         1 TEMP              0 ****  ****    0 ROOT
