@<TRIPOS>MOLECULE
A5T
   75    80     1     0     0
SMALL
No Charge or Current Charge


@<TRIPOS>ATOM
      1 ClA         -1.9770    -2.3030    -3.0740 cl         1 A5T      -0.172000
      2 C36         -3.2190    -1.1730    -2.5300 ca         1 A5T       0.115000
      3 C33         -3.8630    -1.3400    -1.2840 ca         1 A5T       0.132000
      4 ClR3        -3.4450    -2.7270    -0.2700 cl         1 A5T      -0.150000
      5 C38         -3.5590    -0.0950    -3.3620 ca         1 A5T      -0.093000
      6 C37         -4.5500     0.8150    -2.9630 ca         1 A5T      -0.099000
      7 C34         -5.1960     0.6520    -1.7280 ca         1 A5T      -0.106000
      8 C32         -4.8490    -0.4110    -0.8680 ca         1 A5T      -0.099300
      9 C29         -5.5780    -0.5540     0.4700 c3         1 A5T       0.168300
     10 N26         -4.7490    -0.4500     1.7070 n          1 A5T      -0.394800
     11 C28         -5.2060    -1.3430     2.7880 cx         1 A5T       0.057700
     12 C31         -4.4440    -2.5530     3.2760 cx         1 A5T      -0.137400
     13 C30         -4.6530    -1.3700     4.1950 cx         1 A5T      -0.137400
     14 C22         -3.4760     0.1840     1.6740 c          1 A5T       0.626300
     15 O25         -2.5210    -0.3300     2.2380 o          1 A5T      -0.571100
     16 C20         -3.3230     1.5030     0.9590 ce         1 A5T      -0.206400
     17 C23         -4.4980     2.4910     1.0940 c6         1 A5T       0.207700
     18 N27         -4.4810     3.4380    -0.0520 n7         1 A5T      -0.848400
     19 C24         -3.2290     4.2340    -0.0270 c6         1 A5T       0.165500
     20 C21         -2.0370     3.2890    -0.3270 c6         1 A5T      -0.074200
     21 C           -4.3920     3.2630     2.4600 c6         1 A5T       0.169800
     22 NB          -3.1820     4.1360     2.5410 n7         1 A5T      -0.866400
     23 CA          -3.0600     5.0090     1.3360 c6         1 A5T       0.164800
     24 C19         -2.1600     1.9000     0.3410 cf         1 A5T       0.034600
     25 C18         -0.9110     1.1330     0.1800 ca         1 A5T      -0.042800
     26 C16         -0.5680     0.5990    -1.0760 ca         1 A5T      -0.089000
     27 C14          0.6240    -0.1250    -1.2420 ca         1 A5T      -0.104500
     28 C17         -0.0270     0.9630     1.2620 ca         1 A5T      -0.089000
     29 C15          1.1680     0.2410     1.0970 ca         1 A5T      -0.104500
     30 C13          1.4980    -0.3120    -0.1540 ca         1 A5T      -0.078300
     31 C12          2.7930    -1.0920    -0.3350 c3         1 A5T      -0.028100
     32 C10          3.9490    -0.1900    -0.8170 c3         1 A5T      -0.080400
     33 C8           5.2700    -0.9570    -1.0080 c3         1 A5T       0.163600
     34 O5           6.2550    -0.0100    -1.4540 os         1 A5T      -0.344100
     35 C3           7.5800    -0.3300    -1.7360 ca         1 A5T       0.103100
     36 C6           8.1370    -1.6380    -1.6190 ca         1 A5T       0.145000
     37 F1           7.4080    -2.7030    -1.2150 f          1 A5T      -0.160000
     38 C2           8.4160     0.7270    -2.1660 ca         1 A5T       0.059000
     39 Cl11         7.7660     2.3650    -2.3250 cl         1 A5T      -0.145000
     40 C4           9.7700     0.4870    -2.4710 ca         1 A5T       0.174000
     41 F2          10.5680     1.4990    -2.8830 f          1 A5T      -0.157000
     42 C7          10.3080    -0.8020    -2.3530 ca         1 A5T      -0.127000
     43 C9           9.4910    -1.8620    -1.9270 ca         1 A5T      -0.118000
     44 H38         -3.0600     0.0290    -4.3200 ha         1 A5T       0.134000
     45 H37         -4.8220     1.6420    -3.6160 ha         1 A5T       0.125000
     46 H34         -5.9770     1.3540    -1.4400 ha         1 A5T       0.118000
     47 H29         -6.3920     0.1790     0.5300 h1         1 A5T       0.055200
     48 H29A        -6.0660    -1.5370     0.4610 h1         1 A5T       0.055200
     49 H28         -6.2900    -1.4350     2.7070 h1         1 A5T       0.067700
     50 H31         -5.0140    -3.4570     3.4720 hc         1 A5T       0.079700
     51 H31A        -3.4450    -2.7240     2.8860 hc         1 A5T       0.079700
     52 H30         -3.7930    -0.7500     4.4330 hc         1 A5T       0.079700
     53 H30A        -5.3640    -1.4820     5.0090 hc         1 A5T       0.079700
     54 H23         -5.4600     1.9660     1.0930 h1         1 A5T       0.071700
     55 HN27        -4.4980     2.8920    -0.9180 hn         1 A5T       0.418000
     56 H24         -3.2680     4.9880    -0.8280 h1         1 A5T       0.063700
     57 H21         -1.9730     3.1440    -1.4140 hc         1 A5T       0.062200
     58 H21A        -1.0940     3.7680    -0.0310 hc         1 A5T       0.062200
     59 H           -5.2900     3.8860     2.5800 h1         1 A5T       0.034700
     60 HA          -4.3810     2.5430     3.2920 h1         1 A5T       0.034700
     61 HNB         -3.2390     4.7220     3.3830 hn         1 A5T       0.415000
     62 HAA         -2.0900     5.5280     1.3520 h1         1 A5T       0.038700
     63 HAB         -3.8390     5.7840     1.3860 h1         1 A5T       0.038700
     64 H16         -1.2290     0.7460    -1.9260 ha         1 A5T       0.114000
     65 H14          0.8710    -0.5370    -2.2180 ha         1 A5T       0.110000
     66 H17         -0.2720     1.3890     2.2320 ha         1 A5T       0.114000
     67 H15          1.8380     0.1140     1.9450 ha         1 A5T       0.110000
     68 H12          3.0790    -1.5730     0.6090 hc         1 A5T       0.047200
     69 H12A         2.6430    -1.9040    -1.0580 hc         1 A5T       0.047200
     70 H10          3.6670     0.2810    -1.7660 hc         1 A5T       0.060200
     71 H10A         4.1030     0.6160    -0.0890 hc         1 A5T       0.060200
     72 H8           5.5690    -1.4090    -0.0530 h1         1 A5T       0.037200
     73 H8A          5.1250    -1.7500    -1.7530 h1         1 A5T       0.037200
     74 H7          11.3550    -0.9770    -2.5910 ha         1 A5T       0.142000
     75 H9           9.9050    -2.8640    -1.8340 ha         1 A5T       0.141000
@<TRIPOS>BOND
     1     1     2 1   
     2     2     3 ar  
     3     2     5 ar  
     4     3     4 1   
     5     3     8 ar  
     6     5     6 ar  
     7     5    44 1   
     8     6     7 ar  
     9     6    45 1   
    10     7     8 ar  
    11     7    46 1   
    12     8     9 1   
    13     9    10 1   
    14     9    47 1   
    15     9    48 1   
    16    10    11 1   
    17    10    14 1   
    18    11    12 1   
    19    11    13 1   
    20    11    49 1   
    21    12    13 1   
    22    12    50 1   
    23    12    51 1   
    24    13    52 1   
    25    13    53 1   
    26    14    15 2   
    27    14    16 1   
    28    16    17 1   
    29    16    24 2   
    30    17    18 1   
    31    17    21 1   
    32    17    54 1   
    33    18    19 1   
    34    18    55 1   
    35    19    20 1   
    36    19    23 1   
    37    19    56 1   
    38    20    24 1   
    39    20    57 1   
    40    20    58 1   
    41    21    22 1   
    42    21    59 1   
    43    21    60 1   
    44    22    23 1   
    45    22    61 1   
    46    23    62 1   
    47    23    63 1   
    48    24    25 1   
    49    25    26 ar  
    50    25    28 ar  
    51    26    27 ar  
    52    26    64 1   
    53    27    30 ar  
    54    27    65 1   
    55    28    29 ar  
    56    28    66 1   
    57    29    30 ar  
    58    29    67 1   
    59    30    31 1   
    60    31    32 1   
    61    31    68 1   
    62    31    69 1   
    63    32    33 1   
    64    32    70 1   
    65    32    71 1   
    66    33    34 1   
    67    33    72 1   
    68    33    73 1   
    69    34    35 1   
    70    35    36 ar  
    71    35    38 ar  
    72    36    37 1   
    73    36    43 ar  
    74    38    39 1   
    75    38    40 ar  
    76    40    41 1   
    77    40    42 ar  
    78    42    43 ar  
    79    42    74 1   
    80    43    75 1   
@<TRIPOS>SUBSTRUCTURE
     1 A5T         1 TEMP              0 ****  ****    0 ROOT
