@<TRIPOS>MOLECULE
A5T
   75    80     1     0     0
SMALL
abcg2


@<TRIPOS>ATOM
      1 CLA         -7.8100    -2.6510    -2.3440 cl         1 A5T      -0.172000
      2 C36         -7.5780    -1.3320    -1.2580 ca         1 A5T       0.115000
      3 C33         -6.5180    -1.3450    -0.3510 ca         1 A5T       0.132000
      4 CLR3        -5.4980    -2.7270    -0.2940 cl         1 A5T      -0.150000
      5 C38         -8.4680    -0.2730    -1.2960 ca         1 A5T      -0.093000
      6 C37         -8.2980     0.7820    -0.4140 ca         1 A5T      -0.099000
      7 C34         -7.2340     0.7760     0.4700 ca         1 A5T      -0.106000
      8 C32         -6.3150    -0.2720     0.5130 ca         1 A5T      -0.099300
      9 C29         -5.2220    -0.1850     1.5640 c3         1 A5T       0.168300
     10 N26         -3.8880    -0.6570     1.2370 n          1 A5T      -0.394800
     11 C28         -3.4400    -1.8050     2.0080 cx         1 A5T       0.057700
     12 C31         -2.8720    -3.1060     1.5370 cx         1 A5T      -0.137400
     13 C30         -2.0180    -2.1440     2.3260 cx         1 A5T      -0.137400
     14 C22         -3.0750    -0.1760     0.2340 c          1 A5T       0.626300
     15 O25         -2.2900    -0.9440    -0.2980 o          1 A5T      -0.571100
     16 C20         -3.0250     1.2740    -0.1590 ce         1 A5T      -0.206400
     17 C23         -4.1940     2.2410    -0.1040 c6         1 A5T       0.207700
     18 N27         -4.1960     3.1710    -1.2230 n7         1 A5T      -0.848400
     19 C24         -2.9930     3.9890    -1.1860 c6         1 A5T       0.165500
     20 C21         -1.7220     3.1360    -1.2080 c6         1 A5T      -0.074200
     21 C           -4.2060     3.0780     1.1840 c6         1 A5T       0.169800
     22 NB          -3.0710     3.9710     1.2140 n7         1 A5T      -0.866400
     23 CA          -3.0610     4.8500     0.0660 c6         1 A5T       0.164800
     24 C19         -1.8590     1.7500    -0.6370 cf         1 A5T       0.034600
     25 C18         -0.5670     1.0210    -0.6530 ca         1 A5T      -0.042800
     26 C16          0.0570     0.6890    -1.8510 ca         1 A5T      -0.089000
     27 C14          1.3030     0.0790    -1.8560 ca         1 A5T      -0.104500
     28 C17          0.1080     0.7660     0.5370 ca         1 A5T      -0.089000
     29 C15          1.3560     0.1620     0.5280 ca         1 A5T      -0.104500
     30 C13          1.9720    -0.1990    -0.6670 ca         1 A5T      -0.078300
     31 C12          3.3440    -0.8130    -0.6740 c3         1 A5T      -0.028100
     32 C10          4.4430     0.2520    -0.6860 c3         1 A5T      -0.080400
     33 C8           5.8150    -0.3830    -0.6820 c3         1 A5T       0.163600
     34 O5           6.7950     0.6660    -0.6900 os         1 A5T      -0.344100
     35 C3           8.0620     0.2690    -0.4810 ca         1 A5T       0.103100
     36 C6           8.9000    -0.0480    -1.5440 ca         1 A5T       0.145000
     37 F1           8.4000     0.0210    -2.7820 f          1 A5T      -0.160000
     38 C2           8.5830     0.1790     0.8070 ca         1 A5T       0.059000
     39 CL11         7.5930     0.5590     2.1540 cl         1 A5T      -0.145000
     40 C4           9.9050    -0.1930     0.9980 ca         1 A5T       0.174000
     41 F2          10.3770    -0.2600     2.2440 f          1 A5T      -0.157000
     42 C7          10.7250    -0.4940    -0.0690 ca         1 A5T      -0.127000
     43 C9          10.2150    -0.4180    -1.3570 ca         1 A5T      -0.118000
     44 H38         -9.2850    -0.2780    -2.0040 ha         1 A5T       0.134000
     45 H37         -8.9900     1.6120    -0.4260 ha         1 A5T       0.125000
     46 H34         -7.1010     1.6140     1.1440 ha         1 A5T       0.118000
     47 H29         -5.2030     0.8390     1.9310 h1         1 A5T       0.055200
     48 H29A        -5.5600    -0.7690     2.4200 h1         1 A5T       0.055200
     49 H28         -4.0930    -1.9180     2.8630 h1         1 A5T       0.067700
     50 H31         -3.2360    -4.0010     2.0260 hc         1 A5T       0.079700
     51 H31A        -2.6300    -3.2330     0.4940 hc         1 A5T       0.079700
     52 H30         -1.2160    -1.6510     1.7960 hc         1 A5T       0.079700
     53 H30A        -1.7920    -2.3670     3.3610 hc         1 A5T       0.079700
     54 H23         -5.1330     1.6980    -0.1660 h1         1 A5T       0.071700
     55 HN27        -4.2320     2.6490    -2.0910 hn         1 A5T       0.418000
     56 H24         -2.9990     4.6470    -2.0580 h1         1 A5T       0.063700
     57 H21         -1.3750     3.0140    -2.2410 hc         1 A5T       0.062200
     58 H21A        -0.9040     3.6490    -0.6940 hc         1 A5T       0.062200
     59 H           -5.1730     3.6070     1.2210 h1         1 A5T       0.034700
     60 HA          -4.1550     2.4380     2.0660 h1         1 A5T       0.034700
     61 HNB         -3.0760     4.5030     2.0730 hn         1 A5T       0.415000
     62 HAA         -2.1860     5.5010     0.1150 h1         1 A5T       0.038700
     63 HAB         -3.9530     5.4930     0.0030 h1         1 A5T       0.038700
     64 H16         -0.4390     0.8890    -2.7930 ha         1 A5T       0.114000
     65 H14          1.7600    -0.1860    -2.8030 ha         1 A5T       0.110000
     66 H17         -0.3480     1.0400     1.4800 ha         1 A5T       0.114000
     67 H15          1.8580    -0.0310     1.4700 ha         1 A5T       0.110000
     68 H12          3.4690    -1.4510     0.2050 hc         1 A5T       0.047200
     69 H12A         3.4560    -1.4610    -1.5470 hc         1 A5T       0.047200
     70 H10          4.3290     0.8870    -1.5690 hc         1 A5T       0.060200
     71 H10A         4.3380     0.8970     0.1910 hc         1 A5T       0.060200
     72 H8           5.9410    -1.0080     0.2090 h1         1 A5T       0.037200
     73 H8A          5.9510    -1.0240    -1.5590 h1         1 A5T       0.037200
     74 H7          11.7540    -0.7790     0.1030 ha         1 A5T       0.142000
     75 H9          10.8400    -0.6490    -2.2090 ha         1 A5T       0.141000
@<TRIPOS>BOND
     1     1     2 1   
     2     2     3 ar  
     3     2     5 ar  
     4     3     4 1   
     5     3     8 ar  
     6     5     6 ar  
     7     5    44 1   
     8     6     7 ar  
     9     6    45 1   
    10     7     8 ar  
    11     7    46 1   
    12     8     9 1   
    13     9    10 1   
    14     9    47 1   
    15     9    48 1   
    16    10    11 1   
    17    10    14 1   
    18    11    12 1   
    19    11    13 1   
    20    11    49 1   
    21    12    13 1   
    22    12    50 1   
    23    12    51 1   
    24    13    52 1   
    25    13    53 1   
    26    14    15 2   
    27    14    16 1   
    28    16    17 1   
    29    16    24 2   
    30    17    18 1   
    31    17    21 1   
    32    17    54 1   
    33    18    19 1   
    34    18    55 1   
    35    19    20 1   
    36    19    23 1   
    37    19    56 1   
    38    20    24 1   
    39    20    57 1   
    40    20    58 1   
    41    21    22 1   
    42    21    59 1   
    43    21    60 1   
    44    22    23 1   
    45    22    61 1   
    46    23    62 1   
    47    23    63 1   
    48    24    25 1   
    49    25    26 ar  
    50    25    28 ar  
    51    26    27 ar  
    52    26    64 1   
    53    27    30 ar  
    54    27    65 1   
    55    28    29 ar  
    56    28    66 1   
    57    29    30 ar  
    58    29    67 1   
    59    30    31 1   
    60    31    32 1   
    61    31    68 1   
    62    31    69 1   
    63    32    33 1   
    64    32    70 1   
    65    32    71 1   
    66    33    34 1   
    67    33    72 1   
    68    33    73 1   
    69    34    35 1   
    70    35    36 ar  
    71    35    38 ar  
    72    36    37 1   
    73    36    43 ar  
    74    38    39 1   
    75    38    40 ar  
    76    40    41 1   
    77    40    42 ar  
    78    42    43 ar  
    79    42    74 1   
    80    43    75 1   
@<TRIPOS>SUBSTRUCTURE
     1 A5T         1 TEMP              0 ****  ****    0 ROOT
