@<TRIPOS>MOLECULE
A5U
   39    38     1     0     0
SMALL
No Charge or Current Charge


@<TRIPOS>ATOM
      1 C10         -1.3460     1.6470     1.5650 c3         1 A5U      -0.104600
      2 C11          3.4230    -0.5500     0.0590 c3         1 A5U       0.225000
      3 C12         -2.6060    -0.8040    -0.0040 c          1 A5U       0.555100
      4 C13          1.2940     0.6920     0.2040 c          1 A5U       0.651100
      5 C14          4.1840     0.5540    -0.7200 c3         1 A5U      -0.108100
      6 C15          3.7720    -1.9390    -0.5200 c3         1 A5U      -0.108100
      7 C16          3.7090    -0.5260     1.5830 c3         1 A5U      -0.108100
      8 C17         -1.8880    -3.0840    -0.3400 c3         1 A5U       0.151900
      9 C7          -1.1650     1.3700     0.0460 c3         1 A5U       0.172400
     10 C8          -2.4520     0.6630    -0.5410 c3         1 A5U       0.102500
     11 C9          -0.9120     2.7050    -0.7090 c3         1 A5U      -0.104600
     12 N5          -0.0090     0.4790    -0.1570 ns         1 A5U      -0.511900
     13 N6          -3.7080     1.5060    -0.4340 n8         1 A5U      -0.989200
     14 O1           2.0010    -0.4160    -0.1710 os         1 A5U      -0.485100
     15 O3          -3.4330    -1.1370     0.8370 o          1 A5U      -0.486000
     16 O4           1.7290     1.6870     0.7580 o          1 A5U      -0.546000
     17 H1          -1.4620     0.7120     2.1260 hc         1 A5U       0.052867
     18 H2          -0.4870     2.1830     1.9820 hc         1 A5U       0.052867
     19 H3          -2.2300     2.2670     1.7530 hc         1 A5U       0.052867
     20 H4           4.0660     1.5390    -0.2560 hc         1 A5U       0.048589
     21 H5           5.2580     0.3330    -0.7430 hc         1 A5U       0.048589
     22 H6           3.8290     0.6140    -1.7560 hc         1 A5U       0.048589
     23 H7           3.5340    -1.9870    -1.5890 hc         1 A5U       0.048589
     24 H8           4.8410    -2.1540    -0.4000 hc         1 A5U       0.048589
     25 H9           3.2080    -2.7280    -0.0080 hc         1 A5U       0.048589
     26 H10          3.0310    -1.2020     2.1170 hc         1 A5U       0.048589
     27 H11          4.7370    -0.8510     1.7830 hc         1 A5U       0.048589
     28 H12          3.6000     0.4790     2.0050 hc         1 A5U       0.048589
     29 H13         -1.6060    -3.2350     0.7100 h1         1 A5U       0.050367
     30 H14         -2.9040    -3.4750    -0.4880 h1         1 A5U       0.050367
     31 H15         -1.2040    -3.6730    -0.9640 h1         1 A5U       0.050367
     32 H16         -2.2610     0.5410    -1.6170 h1         1 A5U       0.078700
     33 H17         -1.7650     3.3870    -0.6070 hc         1 A5U       0.052867
     34 H18         -0.0330     3.2310    -0.3210 hc         1 A5U       0.052867
     35 H19         -0.7520     2.5220    -1.7790 hc         1 A5U       0.052867
     36 H20         -0.1720    -0.4170    -0.6020 hn         1 A5U       0.323500
     37 H21         -4.4770     1.0340    -0.9270 hn         1 A5U       0.415000
     38 H22         -4.0300     1.5010     0.5420 hn         1 A5U       0.415000
     39 O2          -1.8170    -1.6910    -0.6960 os         1 A5U      -0.446100
@<TRIPOS>BOND
     1     1     9 1   
     2     1    17 1   
     3     1    18 1   
     4     1    19 1   
     5     2     5 1   
     6     2     6 1   
     7     2     7 1   
     8     2    14 1   
     9     3    10 1   
    10     3    15 2   
    11     3    39 1   
    12     4    12 1   
    13     4    14 1   
    14     4    16 2   
    15     5    20 1   
    16     5    21 1   
    17     5    22 1   
    18     6    23 1   
    19     6    24 1   
    20     6    25 1   
    21     7    26 1   
    22     7    27 1   
    23     7    28 1   
    24     8    29 1   
    25     8    30 1   
    26     8    31 1   
    27     8    39 1   
    28     9    10 1   
    29     9    11 1   
    30     9    12 1   
    31    10    13 1   
    32    10    32 1   
    33    11    33 1   
    34    11    34 1   
    35    11    35 1   
    36    12    36 1   
    37    13    37 1   
    38    13    38 1   
@<TRIPOS>SUBSTRUCTURE
     1 A5U         1 TEMP              0 ****  ****    0 ROOT
