@<TRIPOS>MOLECULE
A5U
   39    38     1     0     0
SMALL
abcg2


@<TRIPOS>ATOM
      1 C10         -1.3350     1.6690     1.4780 c3         1 A5U      -0.104600
      2 C11          3.4390    -0.4980     0.0510 c3         1 A5U       0.225000
      3 C12         -2.5880    -0.7720     0.0680 c          1 A5U       0.555100
      4 C13          1.2440     0.5680     0.2480 c          1 A5U       0.651100
      5 C14          4.1910     0.7010    -0.5130 c3         1 A5U      -0.108100
      6 C15          3.8570    -1.7640    -0.6890 c3         1 A5U      -0.108100
      7 C16          3.6840    -0.6780     1.5450 c3         1 A5U      -0.108100
      8 C17         -2.1340    -3.0770    -0.1390 c3         1 A5U       0.151900
      9 C7          -1.1310     1.3210     0.0030 c3         1 A5U       0.172400
     10 C8          -2.3920     0.6020    -0.5710 c3         1 A5U       0.102500
     11 C9          -0.8910     2.5950    -0.8070 c3         1 A5U      -0.104600
     12 N5          -0.0270     0.3780    -0.1770 ns         1 A5U      -0.511900
     13 N6          -3.5630     1.4360    -0.4430 n8         1 A5U      -0.989200
     14 O1           2.0210    -0.4030    -0.2410 os         1 A5U      -0.485100
     15 O3          -3.1830    -0.9580     1.1000 o          1 A5U      -0.486000
     16 O4           1.6210     1.4650     0.9730 o          1 A5U      -0.546000
     17 H1          -1.3790     0.7800     2.1060 hc         1 A5U       0.052867
     18 H2          -0.5280     2.2980     1.8420 hc         1 A5U       0.052867
     19 H3          -2.2590     2.2310     1.6030 hc         1 A5U       0.052867
     20 H4           3.9230     1.6310    -0.0180 hc         1 A5U       0.048589
     21 H5           5.2630     0.5500    -0.3790 hc         1 A5U       0.048589
     22 H6           4.0050     0.8080    -1.5830 hc         1 A5U       0.048589
     23 H7           3.6530    -1.6860    -1.7580 hc         1 A5U       0.048589
     24 H8           4.9280    -1.9260    -0.5640 hc         1 A5U       0.048589
     25 H9           3.3380    -2.6410    -0.3000 hc         1 A5U       0.048589
     26 H10          3.0750    -1.4930     1.9410 hc         1 A5U       0.048589
     27 H11          4.7300    -0.9430     1.7050 hc         1 A5U       0.048589
     28 H12          3.4750     0.2230     2.1170 hc         1 A5U       0.048589
     29 H13         -1.6350    -3.1610     0.8260 h1         1 A5U       0.050367
     30 H14         -3.1710    -3.3990    -0.0390 h1         1 A5U       0.050367
     31 H15         -1.6290    -3.7080    -0.8630 h1         1 A5U       0.050367
     32 H16         -2.2100     0.4520    -1.6400 h1         1 A5U       0.078700
     33 H17         -1.7270     3.2830    -0.6990 hc         1 A5U       0.052867
     34 H18          0.0130     3.0970    -0.4620 hc         1 A5U       0.052867
     35 H19         -0.7700     2.3680    -1.8680 hc         1 A5U       0.052867
     36 H20         -0.1310    -0.3090    -0.9080 hn         1 A5U       0.323500
     37 H21         -4.2890     1.1010    -1.0620 hn         1 A5U       0.415000
     38 H22         -3.9410     1.3800     0.4940 hn         1 A5U       0.415000
     39 O2          -2.0520    -1.7460    -0.6530 os         1 A5U      -0.446100
@<TRIPOS>BOND
     1     1     9 1   
     2     1    17 1   
     3     1    18 1   
     4     1    19 1   
     5     2     5 1   
     6     2     6 1   
     7     2     7 1   
     8     2    14 1   
     9     3    10 1   
    10     3    15 2   
    11     3    39 1   
    12     4    12 1   
    13     4    14 1   
    14     4    16 2   
    15     5    20 1   
    16     5    21 1   
    17     5    22 1   
    18     6    23 1   
    19     6    24 1   
    20     6    25 1   
    21     7    26 1   
    22     7    27 1   
    23     7    28 1   
    24     8    29 1   
    25     8    30 1   
    26     8    31 1   
    27     8    39 1   
    28     9    10 1   
    29     9    11 1   
    30     9    12 1   
    31    10    13 1   
    32    10    32 1   
    33    11    33 1   
    34    11    34 1   
    35    11    35 1   
    36    12    36 1   
    37    13    37 1   
    38    13    38 1   
@<TRIPOS>SUBSTRUCTURE
     1 A5U         1 TEMP              0 ****  ****    0 ROOT
