@<TRIPOS>MOLECULE
A5V
   44    45     1     0     0
SMALL
No Charge or Current Charge


@<TRIPOS>ATOM
      1 O            4.0790     0.1190     1.8440 oh         1 A5V      -0.650000
      2 C2           3.5760     0.5540     0.5760 c3         1 A5V       0.214600
      3 C1           4.7230     0.5660    -0.4630 c3         1 A5V      -0.115400
      4 C            5.7990     1.6310    -0.1680 c3         1 A5V       0.149800
      5 N            6.8410     1.6420    -1.2130 n8         1 A5V      -0.995200
      6 C3           2.4020    -0.3380     0.1640 ca         1 A5V      -0.072300
      7 C15          1.0920     0.1820     0.1690 ca         1 A5V      -0.140000
      8 C7          -0.0040    -0.6150    -0.2010 ca         1 A5V       0.151100
      9 C6           0.2070    -1.9570    -0.5820 ca         1 A5V      -0.198000
     10 C5           1.5080    -2.4870    -0.5860 ca         1 A5V      -0.072000
     11 C4           2.5990    -1.6840    -0.2140 ca         1 A5V      -0.140000
     12 O1          -1.2570    -0.0390    -0.1740 os         1 A5V      -0.350100
     13 C8          -2.4450    -0.7700    -0.5290 c3         1 A5V       0.168600
     14 C9          -3.6830     0.1600    -0.3860 c6         1 A5V      -0.064700
     15 C14         -3.8900     0.6450     1.0800 c6         1 A5V      -0.070400
     16 C13         -5.1330     1.5610     1.2060 c6         1 A5V      -0.073400
     17 C12         -6.4060     0.8560     0.6770 c6         1 A5V      -0.075400
     18 C11         -6.2110     0.3760    -0.7820 c6         1 A5V      -0.073400
     19 C10         -4.9690    -0.5420    -0.9080 c6         1 A5V      -0.070400
     20 H1           4.0810    -0.8620     1.8180 ho         1 A5V       0.438000
     21 H2           3.2050     1.5850     0.6640 h1         1 A5V       0.077700
     22 H3           5.1950    -0.4220    -0.5130 hc         1 A5V       0.056200
     23 H4           4.2920     0.7650    -1.4510 hc         1 A5V       0.056200
     24 H5           5.3330     2.6250    -0.1250 h1         1 A5V       0.033200
     25 H6           6.2740     1.4270     0.8020 h1         1 A5V       0.033200
     26 H7           7.5670     2.3220    -0.9540 hn         1 A5V       0.391500
     27 H8           7.3380     0.7430    -1.1980 hn         1 A5V       0.391500
     28 H10          0.9160     1.2140     0.4630 ha         1 A5V       0.126000
     29 H11         -0.6190    -2.5990    -0.8730 ha         1 A5V       0.117000
     30 H12          1.6710    -3.5230    -0.8770 ha         1 A5V       0.110000
     31 H13          3.5970    -2.1160    -0.2210 ha         1 A5V       0.109000
     32 H14         -2.3800    -1.1190    -1.5680 h1         1 A5V       0.034200
     33 H15         -2.5740    -1.6420     0.1250 h1         1 A5V       0.034200
     34 H16         -3.4850     1.0340    -1.0220 hc         1 A5V       0.061700
     35 H17         -4.0020    -0.2210     1.7470 hc         1 A5V       0.042450
     36 H18         -3.0030     1.1910     1.4280 hc         1 A5V       0.042450
     37 H19         -5.2770     1.8500     2.2560 hc         1 A5V       0.039950
     38 H20         -4.9650     2.4910     0.6460 hc         1 A5V       0.039950
     39 H21         -6.6490    -0.0010     1.3200 hc         1 A5V       0.038700
     40 H22         -7.2620     1.5420     0.7320 hc         1 A5V       0.038700
     41 H23         -7.1070    -0.1620    -1.1200 hc         1 A5V       0.039950
     42 H24         -6.0990     1.2440    -1.4460 hc         1 A5V       0.039950
     43 H25         -4.8360    -0.8340    -1.9590 hc         1 A5V       0.042450
     44 H26         -5.1410    -1.4710    -0.3470 hc         1 A5V       0.042450
@<TRIPOS>BOND
     1     1     2 1   
     2     1    20 1   
     3     2     3 1   
     4     2     6 1   
     5     2    21 1   
     6     3     4 1   
     7     3    22 1   
     8     3    23 1   
     9     4     5 1   
    10     4    24 1   
    11     4    25 1   
    12     5    26 1   
    13     5    27 1   
    14     6     7 ar  
    15     6    11 ar  
    16     7     8 ar  
    17     7    28 1   
    18     8     9 ar  
    19     8    12 1   
    20     9    10 ar  
    21     9    29 1   
    22    10    11 ar  
    23    10    30 1   
    24    11    31 1   
    25    12    13 1   
    26    13    14 1   
    27    13    32 1   
    28    13    33 1   
    29    14    15 1   
    30    14    19 1   
    31    14    34 1   
    32    15    16 1   
    33    15    35 1   
    34    15    36 1   
    35    16    17 1   
    36    16    37 1   
    37    16    38 1   
    38    17    18 1   
    39    17    39 1   
    40    17    40 1   
    41    18    19 1   
    42    18    41 1   
    43    18    42 1   
    44    19    43 1   
    45    19    44 1   
@<TRIPOS>SUBSTRUCTURE
     1 A5V         1 TEMP              0 ****  ****    0 ROOT
