@<TRIPOS>MOLECULE
A5V
   44    45     1     0     0
SMALL
bcc


@<TRIPOS>ATOM
      1 O            4.5680    -0.5390     1.5970 oh         1 A5V      -0.587800
      2 C2           3.6210     0.1610     0.8210 c3         1 A5V       0.191400
      3 C1           4.2260     0.7480    -0.4540 c3         1 A5V      -0.115400
      4 C            5.3750     1.7140    -0.2020 c3         1 A5V       0.149800
      5 N            5.8570     2.2630    -1.4630 n8         1 A5V      -0.884800
      6 C3           2.4140    -0.6880     0.4780 ca         1 A5V      -0.072300
      7 C15          1.1580    -0.1040     0.4560 ca         1 A5V      -0.158000
      8 C7           0.0290    -0.8360     0.0840 ca         1 A5V       0.151100
      9 C6           0.1640    -2.1770    -0.2640 ca         1 A5V      -0.216000
     10 C5           1.4270    -2.7590    -0.2350 ca         1 A5V      -0.090000
     11 C4           2.5480    -2.0320     0.1300 ca         1 A5V      -0.158000
     12 O1          -1.1380    -0.1660     0.0940 os         1 A5V      -0.326900
     13 C8          -2.3140    -0.8070    -0.3730 c3         1 A5V       0.145400
     14 C9          -3.4510     0.1980    -0.3590 c6         1 A5V      -0.064700
     15 C14         -3.7810     0.6870     1.0510 c6         1 A5V      -0.070400
     16 C13         -4.9480     1.6700     1.0460 c6         1 A5V      -0.073400
     17 C12         -6.1820     1.0670     0.3840 c6         1 A5V      -0.075400
     18 C11         -5.8600     0.5650    -1.0200 c6         1 A5V      -0.073400
     19 C10         -4.6910    -0.4160    -1.0090 c6         1 A5V      -0.070400
     20 H1           5.1040    -1.0890     1.0160 ho         1 A5V       0.399000
     21 H2           3.2820     0.9920     1.4500 h1         1 A5V       0.077700
     22 H3           4.5630    -0.0730    -1.0990 hc         1 A5V       0.056200
     23 H4           3.4400     1.2670    -1.0080 hc         1 A5V       0.056200
     24 H5           5.0130     2.5420     0.4150 h1         1 A5V       0.033200
     25 H6           6.1570     1.2130     0.3820 h1         1 A5V       0.033200
     26 H7           6.5990     2.9260    -1.2760 hn         1 A5V       0.336300
     27 H8           6.2880     1.5230    -2.0040 hn         1 A5V       0.336300
     28 H10          1.0400     0.9400     0.7260 ha         1 A5V       0.144000
     29 H11         -0.6890    -2.7780    -0.5500 ha         1 A5V       0.135000
     30 H12          1.5300    -3.8020    -0.5040 ha         1 A5V       0.128000
     31 H13          3.5150    -2.5180     0.1380 ha         1 A5V       0.127000
     32 H14         -2.1580    -1.1830    -1.3910 h1         1 A5V       0.034200
     33 H15         -2.5650    -1.6650     0.2630 h1         1 A5V       0.034200
     34 H16         -3.1440     1.0600    -0.9670 hc         1 A5V       0.061700
     35 H17         -4.0420    -0.1790     1.6730 hc         1 A5V       0.042450
     36 H18         -2.9060     1.1500     1.5120 hc         1 A5V       0.042450
     37 H19         -5.1780     1.9800     2.0680 hc         1 A5V       0.039950
     38 H20         -4.6540     2.5770     0.5060 hc         1 A5V       0.039950
     39 H21         -6.5460     0.2320     0.9920 hc         1 A5V       0.038700
     40 H22         -6.9900     1.8010     0.3470 hc         1 A5V       0.038700
     41 H23         -6.7380     0.0920    -1.4650 hc         1 A5V       0.039950
     42 H24         -5.6070     1.4170    -1.6610 hc         1 A5V       0.039950
     43 H25         -4.4620    -0.7350    -2.0290 hc         1 A5V       0.042450
     44 H26         -4.9780    -1.3190    -0.4560 hc         1 A5V       0.042450
@<TRIPOS>BOND
     1     1     2 1   
     2     1    20 1   
     3     2     3 1   
     4     2     6 1   
     5     2    21 1   
     6     3     4 1   
     7     3    22 1   
     8     3    23 1   
     9     4     5 1   
    10     4    24 1   
    11     4    25 1   
    12     5    26 1   
    13     5    27 1   
    14     6     7 ar  
    15     6    11 ar  
    16     7     8 ar  
    17     7    28 1   
    18     8     9 ar  
    19     8    12 1   
    20     9    10 ar  
    21     9    29 1   
    22    10    11 ar  
    23    10    30 1   
    24    11    31 1   
    25    12    13 1   
    26    13    14 1   
    27    13    32 1   
    28    13    33 1   
    29    14    15 1   
    30    14    19 1   
    31    14    34 1   
    32    15    16 1   
    33    15    35 1   
    34    15    36 1   
    35    16    17 1   
    36    16    37 1   
    37    16    38 1   
    38    17    18 1   
    39    17    39 1   
    40    17    40 1   
    41    18    19 1   
    42    18    41 1   
    43    18    42 1   
    44    19    43 1   
    45    19    44 1   
@<TRIPOS>SUBSTRUCTURE
     1 A5V         1 TEMP              0 ****  ****    0 ROOT
