@<TRIPOS>MOLECULE
A5W
   43    45     1     0     0
SMALL
No Charge or Current Charge


@<TRIPOS>ATOM
      1 C16         -4.1840    -1.2530     0.9320 cy         1 A5W      -0.076900
      2 C15         -5.7170    -1.0900     1.2240 cy         1 A5W      -0.095400
      3 C12         -3.3770     0.3380    -0.6420 c          1 A5W       0.617100
      4 C13         -4.2230     0.3100     0.7200 cy         1 A5W      -0.168700
      5 C14         -5.6860     0.0660     0.1640 cy         1 A5W      -0.076900
      6 C11          0.4120     0.6550    -1.4390 c6         1 A5W      -0.093900
      7 C10         -1.0530     0.2020    -1.6290 c6         1 A5W       0.096500
      8 C9          -1.3310     0.2080     0.9020 c6         1 A5W       0.096500
      9 C8           0.1410     0.6620     1.0280 c6         1 A5W      -0.093900
     10 C7           1.0090     0.1220    -0.1240 c6         1 A5W      -0.005400
     11 C4           4.2140     2.2370     0.2220 ca         1 A5W      -0.146000
     12 C5           2.8690     1.8620     0.0750 ca         1 A5W      -0.076000
     13 C6           2.4990     0.4990     0.0390 ca         1 A5W      -0.102300
     14 C3           5.2090     1.2560     0.3350 ca         1 A5W      -0.073000
     15 C2           4.8590    -0.1020     0.3020 ca         1 A5W      -0.197000
     16 C1           3.5080    -0.4920     0.1540 ca         1 A5W       0.141100
     17 O1          -3.7600     0.3630    -1.8090 o          1 A5W      -0.608100
     18 N           -1.9620     0.3990    -0.4490 n          1 A5W      -0.408800
     19 O            3.1460    -1.8280     0.1190 os         1 A5W      -0.348100
     20 C            4.1040    -2.8960     0.2290 c3         1 A5W       0.149900
     21 H1          -3.5840    -1.6100     1.7770 hc         1 A5W       0.058450
     22 H2          -3.9650    -1.8850     0.0600 hc         1 A5W       0.058450
     23 H3          -6.3460    -1.9510     0.9740 hc         1 A5W       0.049700
     24 H4          -5.9570    -0.7690     2.2450 hc         1 A5W       0.049700
     25 H5          -4.0350     1.0240     1.5280 hc         1 A5W       0.066700
     26 H6          -5.8340    -0.3070    -0.8560 hc         1 A5W       0.058450
     27 H7          -6.3980     0.8810     0.3350 hc         1 A5W       0.058450
     28 H8           1.0140     0.3100    -2.2910 hc         1 A5W       0.051950
     29 H9           0.4510     1.7530    -1.4580 hc         1 A5W       0.051950
     30 H10         -1.4530     0.7360    -2.5020 h1         1 A5W       0.055200
     31 H11         -1.0580    -0.8680    -1.8820 h1         1 A5W       0.055200
     32 H12         -1.3810    -0.8610     1.1530 h1         1 A5W       0.055200
     33 H13         -1.8960     0.7490     1.6720 h1         1 A5W       0.055200
     34 H14          0.1740     1.7600     1.0470 hc         1 A5W       0.051950
     35 H15          0.5460     0.3250     1.9920 hc         1 A5W       0.051950
     36 H16          0.9000    -0.9710    -0.1320 hc         1 A5W       0.063700
     37 H18          2.1150     2.6400    -0.0110 ha         1 A5W       0.113000
     38 H19          6.2510     1.5490     0.4490 ha         1 A5W       0.112000
     39 H20          5.6530    -0.8380     0.3920 ha         1 A5W       0.116000
     40 H21          4.8350    -2.8500    -0.5890 h1         1 A5W       0.040367
     41 H22          4.6390    -2.8440     1.1850 h1         1 A5W       0.040367
     42 H23          3.5970    -3.8670     0.1760 h1         1 A5W       0.040367
     43 H17          4.4840     3.2900     0.2480 ha         1 A5W       0.115000
@<TRIPOS>BOND
     1     1     2 1   
     2     1     4 1   
     3     1    21 1   
     4     1    22 1   
     5     2     5 1   
     6     2    23 1   
     7     2    24 1   
     8     3     4 1   
     9     3    17 2   
    10     3    18 1   
    11     4     5 1   
    12     4    25 1   
    13     5    26 1   
    14     5    27 1   
    15     6     7 1   
    16     6    10 1   
    17     6    28 1   
    18     6    29 1   
    19     7    18 1   
    20     7    30 1   
    21     7    31 1   
    22     8     9 1   
    23     8    18 1   
    24     8    32 1   
    25     8    33 1   
    26     9    10 1   
    27     9    34 1   
    28     9    35 1   
    29    10    13 1   
    30    10    36 1   
    31    11    12 ar  
    32    11    14 ar  
    33    11    43 1   
    34    12    13 ar  
    35    12    37 1   
    36    13    16 ar  
    37    14    15 ar  
    38    14    38 1   
    39    15    16 ar  
    40    15    39 1   
    41    16    19 1   
    42    19    20 1   
    43    20    40 1   
    44    20    41 1   
    45    20    42 1   
@<TRIPOS>SUBSTRUCTURE
     1 A5W         1 TEMP              0 ****  ****    0 ROOT
