@<TRIPOS>MOLECULE
A5W
   43    45     1     0     0
SMALL
bcc


@<TRIPOS>ATOM
      1 C16         -4.6750    -0.6910     1.1220 cy         1 A5W      -0.076900
      2 C15         -5.9170     0.2160     1.0450 cy         1 A5W      -0.095400
      3 C12         -2.9480    -0.0820    -0.7710 c          1 A5W       0.684100
      4 C13         -3.9100     0.3780     0.3010 cy         1 A5W      -0.168700
      5 C14         -5.2680     0.9350    -0.1520 cy         1 A5W      -0.076900
      6 C11          0.4900    -0.3180    -1.1900 c6         1 A5W      -0.093900
      7 C10         -0.8030    -1.1130    -1.3270 c6         1 A5W       0.096500
      8 C9          -1.3370    -0.7390     1.0080 c6         1 A5W       0.096500
      9 C8          -0.0750     0.0940     1.2040 c6         1 A5W      -0.093900
     10 C7           1.0210    -0.3750     0.2480 c6         1 A5W      -0.005400
     11 C4           3.5860     2.3840     0.9150 ca         1 A5W      -0.164000
     12 C5           2.3850     1.6870     0.8260 ca         1 A5W      -0.094000
     13 C6           2.3260     0.3740     0.3770 ca         1 A5W      -0.102300
     14 C3           4.7610     1.7560     0.5460 ca         1 A5W      -0.091000
     15 C2           4.7400     0.4440     0.0890 ca         1 A5W      -0.215000
     16 C1           3.5330    -0.2440     0.0000 ca         1 A5W       0.141100
     17 O1          -3.2320     0.0430    -1.9580 o          1 A5W      -0.608100
     18 N           -1.7960    -0.6590    -0.3670 n          1 A5W      -0.475800
     19 O            3.4380    -1.5160    -0.4420 os         1 A5W      -0.324900
     20 C            4.6170    -2.2160    -0.7780 c3         1 A5W       0.126700
     21 H1          -4.2880    -0.9470     2.1090 hc         1 A5W       0.058450
     22 H2          -4.8090    -1.6120     0.5520 hc         1 A5W       0.058450
     23 H3          -6.8810    -0.2640     0.8830 hc         1 A5W       0.049700
     24 H4          -5.9910     0.8650     1.9180 hc         1 A5W       0.049700
     25 H5          -3.4190     1.0860     0.9740 hc         1 A5W       0.066700
     26 H6          -5.5810     0.4990    -1.1000 hc         1 A5W       0.058450
     27 H7          -5.3690     2.0190    -0.2150 hc         1 A5W       0.058450
     28 H8           1.2280    -0.7190    -1.8870 hc         1 A5W       0.051950
     29 H9           0.3120     0.7250    -1.4710 hc         1 A5W       0.051950
     30 H10         -1.2060    -1.0290    -2.3320 h1         1 A5W       0.055200
     31 H11         -0.6010    -2.1740    -1.1400 h1         1 A5W       0.055200
     32 H12         -1.1270    -1.7880     1.2420 h1         1 A5W       0.055200
     33 H13         -2.1140    -0.4120     1.6920 h1         1 A5W       0.055200
     34 H14         -0.3280     1.1440     1.0310 hc         1 A5W       0.051950
     35 H15          0.2570     0.0050     2.2410 hc         1 A5W       0.051950
     36 H16          1.2070    -1.4290     0.4840 hc         1 A5W       0.063700
     37 H18          1.4720     2.1880     1.1190 ha         1 A5W       0.131000
     38 H19          5.7070     2.2790     0.6110 ha         1 A5W       0.130000
     39 H20          5.6720    -0.0250    -0.1940 ha         1 A5W       0.134000
     40 H21          5.1480    -1.7500    -1.6130 h1         1 A5W       0.040367
     41 H22          5.3010    -2.2980     0.0710 h1         1 A5W       0.040367
     42 H23          4.3090    -3.2140    -1.0760 h1         1 A5W       0.040367
     43 H17          3.5950     3.4060     1.2720 ha         1 A5W       0.133000
@<TRIPOS>BOND
     1     1     2 1   
     2     1     4 1   
     3     1    21 1   
     4     1    22 1   
     5     2     5 1   
     6     2    23 1   
     7     2    24 1   
     8     3     4 1   
     9     3    17 2   
    10     3    18 1   
    11     4     5 1   
    12     4    25 1   
    13     5    26 1   
    14     5    27 1   
    15     6     7 1   
    16     6    10 1   
    17     6    28 1   
    18     6    29 1   
    19     7    18 1   
    20     7    30 1   
    21     7    31 1   
    22     8     9 1   
    23     8    18 1   
    24     8    32 1   
    25     8    33 1   
    26     9    10 1   
    27     9    34 1   
    28     9    35 1   
    29    10    13 1   
    30    10    36 1   
    31    11    12 ar  
    32    11    14 ar  
    33    11    43 1   
    34    12    13 ar  
    35    12    37 1   
    36    13    16 ar  
    37    14    15 ar  
    38    14    38 1   
    39    15    16 ar  
    40    15    39 1   
    41    16    19 1   
    42    19    20 1   
    43    20    40 1   
    44    20    41 1   
    45    20    42 1   
@<TRIPOS>SUBSTRUCTURE
     1 A5W         1 TEMP              0 ****  ****    0 ROOT
