@<TRIPOS>MOLECULE
A5Y
   46    50     1     0     0
SMALL
No Charge or Current Charge


@<TRIPOS>ATOM
      1 N2          -0.6920     1.6040    -0.0200 n          1 A5Y      -0.269500
      2 C7          -4.0550     0.0780    -0.0260 cc         1 A5Y      -0.075000
      3 C6          -2.7270     0.4010    -0.0380 cd         1 A5Y      -0.327600
      4 C5          -2.0110    -0.7630    -0.0680 cd         1 A5Y       0.496000
      5 C3          -0.0660     0.3350    -0.0730 cc         1 A5Y       0.537800
      6 C1          -2.0950     1.6970    -0.0070 c          1 A5Y       0.628600
      7 C21          6.3370    -2.2550    -0.5990 ca         1 A5Y      -0.144000
      8 C20          5.7710    -1.9830     0.6560 ca         1 A5Y       0.171000
      9 C19          4.3900    -1.7680     0.7820 ca         1 A5Y      -0.136000
     10 C18          3.5600    -1.8230    -0.3550 ca         1 A5Y      -0.062300
     11 C17          2.0620    -1.5840    -0.2240 c3         1 A5Y       0.100900
     12 C15          1.0860     2.8980     1.1510 ca         1 A5Y      -0.081000
     13 N4          -0.6540    -0.8670    -0.0920 nd         1 A5Y      -0.702700
     14 C10          0.0980     2.8040     0.1450 ca         1 A5Y       0.017600
     15 C14          1.8710     4.0570     1.2750 ca         1 A5Y      -0.107000
     16 C13          1.6860     5.1310     0.3900 ca         1 A5Y      -0.096000
     17 C12          0.7160     5.0450    -0.6200 ca         1 A5Y      -0.107000
     18 C11         -0.0710     3.8860    -0.7450 ca         1 A5Y      -0.081000
     19 O25         -2.7210     2.7470     0.0520 o          1 A5Y      -0.510000
     20 N8          -4.0240    -1.3210    -0.0550 na         1 A5Y       0.153800
     21 C26         -5.1730    -2.2110    -0.0570 cy         1 A5Y       0.019300
     22 C28         -6.3090    -2.0500     0.9970 cy         1 A5Y       0.128100
     23 O29         -7.2370    -2.5470    -0.0340 oq         1 A5Y      -0.438000
     24 C27         -6.3400    -2.0040    -1.0690 cy         1 A5Y       0.128100
     25 N9          -2.7410    -1.8480    -0.0810 nc         1 A5Y      -0.506800
     26 S16          1.6890     0.2280    -0.3070 ss         1 A5Y      -0.225200
     27 C23          4.1300    -2.0940    -1.6150 ca         1 A5Y      -0.109000
     28 C22          5.5150    -2.3100    -1.7380 ca         1 A5Y      -0.085000
     29 H1          -4.9600     0.6730     0.0010 h4         1 A5Y       0.175000
     30 H2           7.4080    -2.4210    -0.6870 ha         1 A5Y       0.133000
     31 H3           3.9680    -1.5550     1.7610 ha         1 A5Y       0.137000
     32 H4           1.5300    -2.1030    -1.0310 h1         1 A5Y       0.092200
     33 H5           1.7050    -1.9840     0.7340 h1         1 A5Y       0.092200
     34 H6           1.2330     2.0810     1.8540 ha         1 A5Y       0.125500
     35 H7           2.6230     4.1220     2.0590 ha         1 A5Y       0.118000
     36 H8           2.2950     6.0280     0.4860 ha         1 A5Y       0.116000
     37 H9           0.5750     5.8730    -1.3110 ha         1 A5Y       0.118000
     38 H10         -0.8080     3.8270    -1.5420 ha         1 A5Y       0.125500
     39 H11         -4.7850    -3.2340    -0.0860 h1         1 A5Y       0.114700
     40 H12         -6.2460    -2.7100     1.8700 h1         1 A5Y       0.067700
     41 H13         -6.5350    -1.0150     1.2840 h1         1 A5Y       0.067700
     42 H14         -6.5740    -0.9580    -1.3040 h1         1 A5Y       0.067700
     43 H15         -6.3040    -2.6240    -1.9720 h1         1 A5Y       0.067700
     44 H16          3.5010    -2.1340    -2.5020 ha         1 A5Y       0.123000
     45 H17          5.9490    -2.5180    -2.7140 ha         1 A5Y       0.120000
     46 F24          6.5610    -1.9280     1.7510 f          1 A5Y      -0.177000
@<TRIPOS>BOND
     1     1     5 1   
     2     1     6 1   
     3     1    14 1   
     4     2     3 2   
     5     2    20 1   
     6     2    29 1   
     7     3     4 1   
     8     3     6 1   
     9     4    13 1   
    10     4    25 2   
    11     5    13 2   
    12     5    26 1   
    13     6    19 2   
    14     7     8 ar  
    15     7    28 ar  
    16     7    30 1   
    17     8     9 ar  
    18     8    46 1   
    19     9    10 ar  
    20     9    31 1   
    21    10    11 1   
    22    10    27 ar  
    23    11    26 1   
    24    11    32 1   
    25    11    33 1   
    26    12    14 ar  
    27    12    15 ar  
    28    12    34 1   
    29    14    18 ar  
    30    15    16 ar  
    31    15    35 1   
    32    16    17 ar  
    33    16    36 1   
    34    17    18 ar  
    35    17    37 1   
    36    18    38 1   
    37    20    21 1   
    38    20    25 1   
    39    21    22 1   
    40    21    24 1   
    41    21    39 1   
    42    22    23 1   
    43    22    40 1   
    44    22    41 1   
    45    23    24 1   
    46    24    42 1   
    47    24    43 1   
    48    27    28 ar  
    49    27    44 1   
    50    28    45 1   
@<TRIPOS>SUBSTRUCTURE
     1 A5Y         1 TEMP              0 ****  ****    0 ROOT
