@<TRIPOS>MOLECULE
A5Y
   46    50     1     0     0
SMALL
bcc


@<TRIPOS>ATOM
      1 N2          -0.6560     1.4240     0.0470 n          1 A5Y      -0.336500
      2 C7          -4.0870     0.0220     0.0500 cc         1 A5Y      -0.042300
      3 C6          -2.7540     0.3790     0.0370 cd         1 A5Y      -0.392900
      4 C5          -2.0590    -0.8330    -0.1300 cd         1 A5Y       0.561300
      5 C3          -0.0710     0.1820    -0.1140 cc         1 A5Y       0.537800
      6 C1          -2.0460     1.6200     0.1340 c          1 A5Y       0.771100
      7 C21          6.3140    -1.9060    -0.5180 ca         1 A5Y      -0.162000
      8 C20          5.6240    -1.9070     0.6790 ca         1 A5Y       0.135900
      9 C19          4.2490    -1.8020     0.7410 ca         1 A5Y      -0.154000
     10 C18          3.5280    -1.6970    -0.4450 ca         1 A5Y      -0.062300
     11 C17          2.0350    -1.5630    -0.3990 c3         1 A5Y       0.053000
     12 C15          0.6450     3.0120     1.3560 ca         1 A5Y      -0.099000
     13 N4          -0.7030    -0.9310    -0.2030 nd         1 A5Y      -0.702700
     14 C10          0.1710     2.5900     0.1230 ca         1 A5Y       0.017600
     15 C14          1.4520     4.1380     1.4230 ca         1 A5Y      -0.125000
     16 C13          1.7750     4.8330     0.2650 ca         1 A5Y      -0.114000
     17 C12          1.2910     4.4050    -0.9640 ca         1 A5Y      -0.125000
     18 C11          0.4840     3.2790    -1.0390 ca         1 A5Y      -0.099000
     19 O25         -2.5130     2.7300     0.2700 o          1 A5Y      -0.585500
     20 N8          -4.1070    -1.3060    -0.1060 na         1 A5Y       0.132400
     21 C26         -5.2610    -2.1660    -0.1210 cy         1 A5Y      -0.010000
     22 C28         -6.1600    -2.1890     1.1220 cy         1 A5Y       0.104900
     23 O29         -7.3100    -1.8550     0.3390 oq         1 A5Y      -0.391600
     24 C27         -6.5210    -1.6750    -0.8410 cy         1 A5Y       0.104900
     25 N9          -2.8870    -1.8550    -0.2140 nc         1 A5Y      -0.506800
     26 S16          1.6810     0.2140    -0.1960 ss         1 A5Y      -0.177300
     27 C23          4.2020    -1.6880    -1.6620 ca         1 A5Y      -0.127000
     28 C22          5.5860    -1.7960    -1.6940 ca         1 A5Y      -0.103000
     29 H1          -4.9820     0.6150     0.1560 h4         1 A5Y       0.193000
     30 H2           7.3930    -1.9910    -0.5330 ha         1 A5Y       0.151000
     31 H3           3.7440    -1.8080     1.7000 ha         1 A5Y       0.155000
     32 H4           1.5690    -1.9150    -1.3170 h1         1 A5Y       0.092200
     33 H5           1.6060    -2.1060     0.4430 h1         1 A5Y       0.092200
     34 H6           0.3880     2.4630     2.2530 ha         1 A5Y       0.143500
     35 H7           1.8270     4.4720     2.3810 ha         1 A5Y       0.136000
     36 H8           2.4050     5.7110     0.3200 ha         1 A5Y       0.134000
     37 H9           1.5390     4.9470    -1.8670 ha         1 A5Y       0.136000
     38 H10          0.1050     2.9340    -1.9920 ha         1 A5Y       0.143500
     39 H11         -4.9180    -3.1460    -0.4410 h1         1 A5Y       0.114700
     40 H12         -6.2520    -3.1580     1.6160 h1         1 A5Y       0.067700
     41 H13         -5.9190    -1.4270     1.8690 h1         1 A5Y       0.067700
     42 H14         -6.4870    -0.6330    -1.1740 h1         1 A5Y       0.067700
     43 H15         -6.8520    -2.2990    -1.6740 h1         1 A5Y       0.067700
     44 H16          3.6440    -1.6020    -2.5860 ha         1 A5Y       0.141000
     45 H17          6.1060    -1.7950    -2.6430 ha         1 A5Y       0.138000
     46 F24          6.3140    -2.0180     1.8250 f          1 A5Y      -0.141900
@<TRIPOS>BOND
     1     1     5 1   
     2     1     6 1   
     3     1    14 1   
     4     2     3 2   
     5     2    20 1   
     6     2    29 1   
     7     3     4 1   
     8     3     6 1   
     9     4    13 1   
    10     4    25 2   
    11     5    13 2   
    12     5    26 1   
    13     6    19 2   
    14     7     8 ar  
    15     7    28 ar  
    16     7    30 1   
    17     8     9 ar  
    18     8    46 1   
    19     9    10 ar  
    20     9    31 1   
    21    10    11 1   
    22    10    27 ar  
    23    11    26 1   
    24    11    32 1   
    25    11    33 1   
    26    12    14 ar  
    27    12    15 ar  
    28    12    34 1   
    29    14    18 ar  
    30    15    16 ar  
    31    15    35 1   
    32    16    17 ar  
    33    16    36 1   
    34    17    18 ar  
    35    17    37 1   
    36    18    38 1   
    37    20    21 1   
    38    20    25 1   
    39    21    22 1   
    40    21    24 1   
    41    21    39 1   
    42    22    23 1   
    43    22    40 1   
    44    22    41 1   
    45    23    24 1   
    46    24    42 1   
    47    24    43 1   
    48    27    28 ar  
    49    27    44 1   
    50    28    45 1   
@<TRIPOS>SUBSTRUCTURE
     1 A5Y         1 TEMP              0 ****  ****    0 ROOT
