@<TRIPOS>MOLECULE
A5Z
   25    26     1     0     0
SMALL
No Charge or Current Charge


@<TRIPOS>ATOM
      1 C10          1.2930     1.2700     0.3470 ca         1 A5Z       0.150500
      2 C9           2.6420     1.6320     0.1930 ca         1 A5Z      -0.109500
      3 C8           3.6020     0.6690    -0.1470 ca         1 A5Z      -0.086000
      4 C7           3.2120    -0.6670    -0.3150 ca         1 A5Z      -0.109500
      5 C5           0.8770    -0.0710     0.1460 ca         1 A5Z      -0.115500
      6 C6           1.8660    -1.0400    -0.1580 ca         1 A5Z       0.150500
      7 C3          -1.6520     0.1580    -0.2700 cc         1 A5Z      -0.204300
      8 C2          -0.5260    -0.4730     0.3200 cc         1 A5Z       0.341500
      9 C1          -2.7160    -0.4670     0.2970 cd         1 A5Z       0.200300
     10 Cl1          0.1910     2.5160     0.9400 cl         1 A5Z      -0.177500
     11 Cl           1.4550    -2.7320    -0.4550 cl         1 A5Z      -0.177500
     12 N           -0.8610    -1.4060     1.2010 nd         1 A5Z      -0.333300
     13 O           -2.2940    -1.4170     1.1830 os         1 A5Z      -0.069700
     14 O1          -2.3110     0.7250    -2.5100 oh         1 A5Z      -0.648000
     15 C           -4.1920    -0.2800     0.0770 c3         1 A5Z      -0.136400
     16 H1           2.9470     2.6620     0.3610 ha         1 A5Z       0.134500
     17 H2           4.6460     0.9540    -0.2650 ha         1 A5Z       0.123000
     18 H3           3.9540    -1.4180    -0.5730 ha         1 A5Z       0.134500
     19 H4          -2.1200     2.1150    -0.9710 h1         1 A5Z       0.027700
     20 H5          -0.5970     1.4600    -1.6060 h1         1 A5Z       0.027700
     21 H6          -2.2720     1.4460    -3.1760 ho         1 A5Z       0.442000
     22 H7          -4.7740    -0.7250     0.8920 hc         1 A5Z       0.063033
     23 H8          -4.4470     0.7840     0.0230 hc         1 A5Z       0.063033
     24 H9          -4.5070    -0.7520    -0.8610 hc         1 A5Z       0.063033
     25 C4          -1.6330     1.2060    -1.3480 c3         1 A5Z       0.243900
@<TRIPOS>BOND
     1     1     2 ar  
     2     1     5 ar  
     3     1    10 1   
     4     2     3 ar  
     5     2    16 1   
     6     3     4 ar  
     7     3    17 1   
     8     4     6 ar  
     9     4    18 1   
    10     5     6 ar  
    11     5     8 1   
    12     6    11 1   
    13     7     8 1   
    14     7     9 2   
    15     7    25 1   
    16     8    12 2   
    17     9    13 1   
    18     9    15 1   
    19    12    13 1   
    20    14    21 1   
    21    14    25 1   
    22    15    22 1   
    23    15    23 1   
    24    15    24 1   
    25    19    25 1   
    26    20    25 1   
@<TRIPOS>SUBSTRUCTURE
     1 A5Z         1 TEMP              0 ****  ****    0 ROOT
