@<TRIPOS>MOLECULE
A5Z
   25    26     1     0     0
SMALL
abcg2


@<TRIPOS>ATOM
      1 C10          1.3970     1.2730     0.5990 ca         1 A5Z       0.150500
      2 C9           2.7250     1.5580     0.3280 ca         1 A5Z      -0.109500
      3 C8           3.4950     0.6080    -0.3240 ca         1 A5Z      -0.086000
      4 C7           2.9470    -0.6080    -0.7030 ca         1 A5Z      -0.109500
      5 C5           0.8140     0.0620     0.2390 ca         1 A5Z      -0.115500
      6 C6           1.6150    -0.8650    -0.4220 ca         1 A5Z       0.150500
      7 C3          -1.7230     0.2020    -0.2490 cc         1 A5Z      -0.204300
      8 C2          -0.6040    -0.2080     0.5230 cc         1 A5Z       0.341500
      9 C1          -2.7750    -0.3030     0.4420 cd         1 A5Z       0.200300
     10 CL1          0.4350     2.4590     1.4100 cl         1 A5Z      -0.177500
     11 CL           0.9350    -2.3750    -0.9060 cl         1 A5Z      -0.177500
     12 N           -0.9630    -0.8850     1.5720 nd         1 A5Z      -0.333300
     13 O           -2.3210    -0.9430     1.5270 os         1 A5Z      -0.069700
     14 O1          -0.9580     0.2500    -2.4690 oh         1 A5Z      -0.648000
     15 C           -4.2390    -0.2670     0.2310 c3         1 A5Z      -0.136400
     16 H1           3.1520     2.5060     0.6230 ha         1 A5Z       0.134500
     17 H2           4.5330     0.8170    -0.5410 ha         1 A5Z       0.123000
     18 H3           3.5480    -1.3460    -1.2150 ha         1 A5Z       0.134500
     19 H4          -2.7100     1.1940    -1.8430 h1         1 A5Z       0.027700
     20 H5          -1.2200     1.9570    -1.3150 h1         1 A5Z       0.027700
     21 H6          -0.7430     0.8460    -3.1930 ho         1 A5Z       0.442000
     22 H7          -4.6670    -1.2690     0.2670 hc         1 A5Z       0.063033
     23 H8          -4.7330     0.3350     0.9950 hc         1 A5Z       0.063033
     24 H9          -4.4690     0.1660    -0.7400 hc         1 A5Z       0.063033
     25 C4          -1.6860     0.9840    -1.5110 c3         1 A5Z       0.243900
@<TRIPOS>BOND
     1     1     2 ar  
     2     1     5 ar  
     3     1    10 1   
     4     2     3 ar  
     5     2    16 1   
     6     3     4 ar  
     7     3    17 1   
     8     4     6 ar  
     9     4    18 1   
    10     5     6 ar  
    11     5     8 1   
    12     6    11 1   
    13     7     8 1   
    14     7     9 2   
    15     7    25 1   
    16     8    12 2   
    17     9    13 1   
    18     9    15 1   
    19    12    13 1   
    20    14    21 1   
    21    14    25 1   
    22    15    22 1   
    23    15    23 1   
    24    15    24 1   
    25    19    25 1   
    26    20    25 1   
@<TRIPOS>SUBSTRUCTURE
     1 A5Z         1 TEMP              0 ****  ****    0 ROOT
