@<TRIPOS>MOLECULE
A60
   81    84     1     0     0
SMALL
No Charge or Current Charge


@<TRIPOS>ATOM
      1 N1           0.1030     1.4830    -4.7310 nv         1 A60      -1.098000
      2 C2          -0.7250     1.4830    -3.6470 ca         1 A60       0.376000
      3 C3          -2.0190     0.9640    -3.7590 ca         1 A60      -0.216000
      4 C4          -2.8770     0.9620    -2.6480 ca         1 A60       0.031500
      5 C5          -2.4290     1.4790    -1.4180 ca         1 A60      -0.370500
      6 C6          -1.1290     2.0130    -1.3090 ca         1 A60       0.031500
      7 C7          -0.2810     2.0070    -2.4290 ca         1 A60      -0.216000
      8 S8          -3.5290     1.4450     0.0070 sy         1 A60       1.195600
      9 O9          -2.9030     2.1740     1.1140 o          1 A60      -0.547500
     10 O10         -4.8740     1.7610    -0.4830 o          1 A60      -0.547500
     11 N11         -3.5570    -0.2090     0.4390 n3         1 A60      -0.782500
     12 C12         -4.2400    -0.5050     1.7280 c3         1 A60       0.242800
     13 C13         -5.4250    -1.5240     1.6470 c3         1 A60      -0.073700
     14 C14         -6.6080    -1.0070     0.7770 c3         1 A60      -0.073400
     15 C15         -5.0150    -2.9630     1.2150 c3         1 A60      -0.073400
     16 C16         -2.3390    -1.0180     0.1340 c3         1 A60       0.188800
     17 C17         -1.0330    -0.6630     0.9250 c3         1 A60       0.127300
     18 C18         -4.0540    -3.6790     2.1900 c3         1 A60      -0.091100
     19 O18         -1.0090    -1.2870     2.2300 oh         1 A60      -0.652000
     20 C19          0.2660    -1.0160     0.1370 c3         1 A60       0.093700
     21 C20         -7.3410     0.2240     1.3560 c3         1 A60      -0.091100
     22 N20          1.4480    -0.5420     0.8680 ns         1 A60      -0.484900
     23 C21          2.4700     0.1850     0.3290 c          1 A60       0.648100
     24 O22          2.5260     0.5730    -0.8270 o          1 A60      -0.537000
     25 O23          3.3940     0.4150     1.3090 os         1 A60      -0.452100
     26 C24          4.5340     1.2190     0.8940 c5         1 A60       0.165300
     27 C25          4.1310     2.7130     0.7340 c5         1 A60       0.128600
     28 O26          5.3950     3.3950     0.8710 os         1 A60      -0.447000
     29 C27          6.1290     2.7650     1.9410 c5         1 A60       0.376300
     30 O28          5.7890     3.4360     3.1700 os         1 A60      -0.463000
     31 C29          5.6770     2.4270     4.1860 c5         1 A60       0.153600
     32 C30          4.8270     1.3600     3.4730 c5         1 A60      -0.103400
     33 C31          5.5550     1.3150     2.0790 c5         1 A60      -0.131700
     34 C32          0.4170    -2.5180    -0.2300 c3         1 A60      -0.056100
     35 C33          2.7980    -3.3840    -0.5030 ca         1 A60      -0.099500
     36 C34          3.9420    -3.6200    -1.2850 ca         1 A60      -0.106500
     37 C35          3.9500    -3.2660    -2.6450 ca         1 A60      -0.104000
     38 C36          2.8140    -2.6750    -3.2220 ca         1 A60      -0.106500
     39 C37          1.6700    -2.4390    -2.4400 ca         1 A60      -0.099500
     40 C38          1.6550    -2.7920    -1.0760 ca         1 A60      -0.087300
     41 HN1         -0.2820     1.2850    -5.6520 hn         1 A60       0.477500
     42 HN1A         0.9700     2.0150    -4.6970 hn         1 A60       0.477500
     43 H3          -2.3650     0.5580    -4.7050 ha         1 A60       0.122500
     44 H4          -3.8810     0.5480    -2.7420 ha         1 A60       0.132000
     45 H6          -0.7680     2.4250    -0.3680 ha         1 A60       0.132000
     46 H7           0.7240     2.4090    -2.3410 ha         1 A60       0.122500
     47 H12         -3.5170    -0.8690     2.4680 h1         1 A60       0.060700
     48 H12A        -4.6420     0.4180     2.1670 h1         1 A60       0.060700
     49 H13         -5.8140    -1.6170     2.6680 hc         1 A60       0.049700
     50 H14         -6.2500    -0.7760    -0.2340 hc         1 A60       0.041450
     51 H14A        -7.3500    -1.8070     0.6640 hc         1 A60       0.041450
     52 H15         -5.9180    -3.5800     1.1400 hc         1 A60       0.041450
     53 H15A        -4.5820    -2.9430     0.2090 hc         1 A60       0.041450
     54 H16         -2.5460    -2.0810     0.2990 h1         1 A60       0.063200
     55 H16A        -2.1160    -0.9530    -0.9370 h1         1 A60       0.063200
     56 H17         -1.0110     0.4250     1.0550 h1         1 A60       0.101700
     57 H18         -4.5000    -3.7510     3.1880 hc         1 A60       0.033533
     58 H18A        -3.8450    -4.6950     1.8360 hc         1 A60       0.033533
     59 H18B        -3.1000    -3.1510     2.2780 hc         1 A60       0.033533
     60 HO18        -0.9650    -2.2570     2.0980 ho         1 A60       0.438000
     61 H19          0.2150    -0.4620    -0.8100 h1         1 A60       0.091700
     62 H20         -6.6780     1.0910     1.4340 hc         1 A60       0.033533
     63 H20A        -8.1820     0.5020     0.7080 hc         1 A60       0.033533
     64 H20B        -7.7400     0.0030     2.3530 hc         1 A60       0.033533
     65 HN20         1.5330    -0.7630     1.8510 hn         1 A60       0.331500
     66 H24          4.9970     0.8120    -0.0160 h1         1 A60       0.078700
     67 H25          3.6900     2.9380    -0.2460 h1         1 A60       0.064200
     68 H25A         3.4460     3.0500     1.5240 h1         1 A60       0.064200
     69 H27          7.2130     2.7820     1.7600 h2         1 A60       0.088700
     70 H29          6.6780     2.0570     4.4510 h1         1 A60       0.050200
     71 H29A         5.1920     2.8390     5.0820 h1         1 A60       0.050200
     72 H30          4.8420     0.3940     3.9900 hc         1 A60       0.065200
     73 H30A         3.7830     1.6920     3.4240 hc         1 A60       0.065200
     74 H31          6.3410     0.5530     2.0310 hc         1 A60       0.078700
     75 H32          0.4500    -3.1180     0.6880 hc         1 A60       0.051700
     76 H32A        -0.4700    -2.8540    -0.7800 hc         1 A60       0.051700
     77 H34          4.8220    -4.0760    -0.8360 ha         1 A60       0.112500
     78 H35          4.8360    -3.4490    -3.2500 ha         1 A60       0.113000
     79 H36          2.8190    -2.3990    -4.2740 ha         1 A60       0.112500
     80 H37          0.7960    -1.9750    -2.8940 ha         1 A60       0.109500
     81 H33          2.8040    -3.6560     0.5500 ha         1 A60       0.109500
@<TRIPOS>BOND
     1     1     2 1   
     2     1    41 1   
     3     1    42 1   
     4     2     3 ar  
     5     2     7 ar  
     6     3     4 ar  
     7     3    43 1   
     8     4     5 ar  
     9     4    44 1   
    10     5     6 ar  
    11     5     8 1   
    12     6     7 ar  
    13     6    45 1   
    14     7    46 1   
    15     8     9 2   
    16     8    10 2   
    17     8    11 1   
    18    11    12 1   
    19    11    16 1   
    20    12    13 1   
    21    12    47 1   
    22    12    48 1   
    23    13    14 1   
    24    13    15 1   
    25    13    49 1   
    26    14    21 1   
    27    14    50 1   
    28    14    51 1   
    29    15    18 1   
    30    15    52 1   
    31    15    53 1   
    32    16    17 1   
    33    16    54 1   
    34    16    55 1   
    35    17    19 1   
    36    17    20 1   
    37    17    56 1   
    38    18    57 1   
    39    18    58 1   
    40    18    59 1   
    41    19    60 1   
    42    20    22 1   
    43    20    34 1   
    44    20    61 1   
    45    21    62 1   
    46    21    63 1   
    47    21    64 1   
    48    22    23 1   
    49    22    65 1   
    50    23    24 2   
    51    23    25 1   
    52    25    26 1   
    53    26    27 1   
    54    26    33 1   
    55    26    66 1   
    56    27    28 1   
    57    27    67 1   
    58    27    68 1   
    59    28    29 1   
    60    29    30 1   
    61    29    33 1   
    62    29    69 1   
    63    30    31 1   
    64    31    32 1   
    65    31    70 1   
    66    31    71 1   
    67    32    33 1   
    68    32    72 1   
    69    32    73 1   
    70    33    74 1   
    71    34    40 1   
    72    34    75 1   
    73    34    76 1   
    74    35    36 ar  
    75    35    40 ar  
    76    35    81 1   
    77    36    37 ar  
    78    36    77 1   
    79    37    38 ar  
    80    37    78 1   
    81    38    39 ar  
    82    38    79 1   
    83    39    40 ar  
    84    39    80 1   
@<TRIPOS>SUBSTRUCTURE
     1 A60         1 TEMP              0 ****  ****    0 ROOT
