@<TRIPOS>MOLECULE
A60
   81    84     1     0     0
SMALL
abcg2


@<TRIPOS>ATOM
      1 N1           0.9740     3.7540    -0.8660 nv         1 A60      -1.098000
      2 C2          -0.2280     3.1290    -0.9360 ca         1 A60       0.376000
      3 C3          -0.4910     2.1810    -1.9380 ca         1 A60      -0.216000
      4 C4          -1.6890     1.5010    -1.9690 ca         1 A60       0.031500
      5 C5          -2.6550     1.7420    -0.9960 ca         1 A60      -0.370500
      6 C6          -2.4230     2.6990    -0.0100 ca         1 A60       0.031500
      7 C7          -1.2320     3.3900     0.0150 ca         1 A60      -0.216000
      8 S8          -4.0810     0.7280    -0.8820 sy         1 A60       1.195600
      9 O9          -5.1770     1.5140    -0.3320 o          1 A60      -0.547500
     10 O10         -4.2660     0.0900    -2.1820 o          1 A60      -0.547500
     11 N11         -3.6940    -0.4260     0.2330 n3         1 A60      -0.782500
     12 C12         -4.4620    -0.6130     1.4660 c3         1 A60       0.242800
     13 C13         -5.5370    -1.7080     1.4220 c3         1 A60      -0.073700
     14 C14         -6.7040    -1.3800     0.4860 c3         1 A60      -0.073400
     15 C15         -4.9830    -3.1040     1.1180 c3         1 A60      -0.073400
     16 C16         -2.4680    -1.1770    -0.0060 c3         1 A60       0.188800
     17 C17         -1.2170    -0.6190     0.6830 c3         1 A60       0.127300
     18 C18         -4.0100    -3.6420     2.1590 c3         1 A60      -0.091100
     19 O18         -1.2090    -0.8320     2.0790 oh         1 A60      -0.652000
     20 C19          0.0590    -1.1350     0.0060 c3         1 A60       0.093700
     21 C20         -7.6230    -0.2780     0.9960 c3         1 A60      -0.091100
     22 N20          1.2020    -0.4400     0.5470 ns         1 A60      -0.484900
     23 C21          2.2060     0.0170    -0.2240 c          1 A60       0.648100
     24 O22          2.2100     0.0710    -1.4340 o          1 A60      -0.537000
     25 O23          3.2280     0.4320     0.5440 os         1 A60      -0.452100
     26 C24          4.4040     0.8600    -0.1160 c5         1 A60       0.165300
     27 C25          4.3270     2.2670    -0.7060 c5         1 A60       0.128600
     28 O26          5.6840     2.6600    -0.8030 os         1 A60      -0.447000
     29 C27          6.4310     2.0710     0.2290 c5         1 A60       0.376300
     30 O28          6.7510     3.0140     1.2140 os         1 A60      -0.463000
     31 C29          6.3510     2.5400     2.4930 c5         1 A60       0.153600
     32 C30          5.1630     1.6310     2.2270 c5         1 A60      -0.103400
     33 C31          5.5410     1.0010     0.8850 c5         1 A60      -0.131700
     34 C32          0.2370    -2.6600     0.1090 c3         1 A60      -0.056100
     35 C33          2.6920    -3.2050     0.1590 ca         1 A60      -0.099500
     36 C34          3.8820    -3.5360    -0.4750 ca         1 A60      -0.106500
     37 C35          3.8990    -3.7850    -1.8400 ca         1 A60      -0.104000
     38 C36          2.7160    -3.7040    -2.5650 ca         1 A60      -0.106500
     39 C37          1.5310    -3.3650    -1.9290 ca         1 A60      -0.099500
     40 C38          1.5040    -3.1080    -0.5610 ca         1 A60      -0.087300
     41 HN1          1.5830     3.7220    -1.6650 hn         1 A60       0.477500
     42 HN1A         1.0590     4.5830    -0.3030 hn         1 A60       0.477500
     43 H3           0.2610     1.9740    -2.6880 ha         1 A60       0.122500
     44 H4          -1.8590     0.7690    -2.7480 ha         1 A60       0.132000
     45 H6          -3.1670     2.9010     0.7500 ha         1 A60       0.132000
     46 H7          -1.0620     4.1340     0.7830 ha         1 A60       0.122500
     47 H12         -3.7470    -0.8210     2.2610 h1         1 A60       0.060700
     48 H12A        -4.9210     0.3350     1.7430 h1         1 A60       0.060700
     49 H13         -5.9390    -1.7400     2.4440 hc         1 A60       0.049700
     50 H14         -6.3270    -1.1340    -0.5110 hc         1 A60       0.041450
     51 H14A        -7.2990    -2.2880     0.3540 hc         1 A60       0.041450
     52 H15         -5.8280    -3.7950     1.0590 hc         1 A60       0.041450
     53 H15A        -4.5320    -3.1160     0.1210 hc         1 A60       0.041450
     54 H16         -2.6350    -2.2120     0.2980 h1         1 A60       0.063200
     55 H16A        -2.2900    -1.2380    -1.0820 h1         1 A60       0.063200
     56 H17         -1.2050     0.4650     0.5650 h1         1 A60       0.101700
     57 H18         -4.4900    -3.7130     3.1370 hc         1 A60       0.033533
     58 H18A        -3.6540    -4.6370     1.8890 hc         1 A60       0.033533
     59 H18B        -3.1310    -3.0100     2.2850 hc         1 A60       0.033533
     60 HO18        -1.2190    -1.7760     2.2650 ho         1 A60       0.438000
     61 H19         -0.0110    -0.8640    -1.0490 h1         1 A60       0.091700
     62 H20         -7.1000     0.6660     1.1350 hc         1 A60       0.033533
     63 H20A        -8.4400    -0.0970     0.2960 hc         1 A60       0.033533
     64 H20B        -8.0680    -0.5590     1.9530 hc         1 A60       0.033533
     65 HN20         1.3490    -0.4890     1.5440 hn         1 A60       0.331500
     66 H24          4.6770     0.1440    -0.8960 h1         1 A60       0.078700
     67 H25          3.8850     2.2960    -1.7000 h1         1 A60       0.064200
     68 H25A         3.7480     2.9290    -0.0490 h1         1 A60       0.064200
     69 H27          7.3510     1.6820    -0.2150 h2         1 A60       0.088700
     70 H29          7.1680     1.9860     2.9690 h1         1 A60       0.050200
     71 H29A         6.1090     3.3960     3.1240 h1         1 A60       0.050200
     72 H30          5.0230     0.8910     3.0140 hc         1 A60       0.065200
     73 H30A         4.2460     2.2200     2.1580 hc         1 A60       0.065200
     74 H31          6.0810     0.0650     1.0320 hc         1 A60       0.078700
     75 H32          0.2560    -2.9660     1.1590 hc         1 A60       0.051700
     76 H32A        -0.6240    -3.1520    -0.3520 hc         1 A60       0.051700
     77 H34          4.7970    -3.6020     0.1010 ha         1 A60       0.112500
     78 H35          4.8250    -4.0460    -2.3360 ha         1 A60       0.113000
     79 H36          2.7170    -3.9030    -3.6290 ha         1 A60       0.112500
     80 H37          0.6150    -3.3000    -2.5060 ha         1 A60       0.109500
     81 H33          2.6870    -3.0210     1.2270 ha         1 A60       0.109500
@<TRIPOS>BOND
     1     1     2 1   
     2     1    41 1   
     3     1    42 1   
     4     2     3 ar  
     5     2     7 ar  
     6     3     4 ar  
     7     3    43 1   
     8     4     5 ar  
     9     4    44 1   
    10     5     6 ar  
    11     5     8 1   
    12     6     7 ar  
    13     6    45 1   
    14     7    46 1   
    15     8     9 2   
    16     8    10 2   
    17     8    11 1   
    18    11    12 1   
    19    11    16 1   
    20    12    13 1   
    21    12    47 1   
    22    12    48 1   
    23    13    14 1   
    24    13    15 1   
    25    13    49 1   
    26    14    21 1   
    27    14    50 1   
    28    14    51 1   
    29    15    18 1   
    30    15    52 1   
    31    15    53 1   
    32    16    17 1   
    33    16    54 1   
    34    16    55 1   
    35    17    19 1   
    36    17    20 1   
    37    17    56 1   
    38    18    57 1   
    39    18    58 1   
    40    18    59 1   
    41    19    60 1   
    42    20    22 1   
    43    20    34 1   
    44    20    61 1   
    45    21    62 1   
    46    21    63 1   
    47    21    64 1   
    48    22    23 1   
    49    22    65 1   
    50    23    24 2   
    51    23    25 1   
    52    25    26 1   
    53    26    27 1   
    54    26    33 1   
    55    26    66 1   
    56    27    28 1   
    57    27    67 1   
    58    27    68 1   
    59    28    29 1   
    60    29    30 1   
    61    29    33 1   
    62    29    69 1   
    63    30    31 1   
    64    31    32 1   
    65    31    70 1   
    66    31    71 1   
    67    32    33 1   
    68    32    72 1   
    69    32    73 1   
    70    33    74 1   
    71    34    40 1   
    72    34    75 1   
    73    34    76 1   
    74    35    36 ar  
    75    35    40 ar  
    76    35    81 1   
    77    36    37 ar  
    78    36    77 1   
    79    37    38 ar  
    80    37    78 1   
    81    38    39 ar  
    82    38    79 1   
    83    39    40 ar  
    84    39    80 1   
@<TRIPOS>SUBSTRUCTURE
     1 A60         1 TEMP              0 ****  ****    0 ROOT
