@<TRIPOS>MOLECULE
A61
   81    85     1     0     0
SMALL
abcg2


@<TRIPOS>ATOM
      1 C1           1.5270    -2.7390     2.7690 cc         1 A61       0.410100
      2 N1           1.0470    -3.1730     1.6580 nd         1 A61      -0.537100
      3 S1           0.5950    -1.5530     3.6140 ss         1 A61       0.083800
      4 C2          -0.1470    -2.5590     1.3820 ca         1 A61       0.141400
      5 C3          -0.5710    -1.6300     2.3470 ca         1 A61      -0.219000
      6 C4          -1.7620    -0.9280     2.2150 ca         1 A61       0.029000
      7 C5          -2.5150    -1.1750     1.0840 ca         1 A61      -0.291500
      8 C6          -2.1240    -2.1090     0.1140 ca         1 A61      -0.038000
      9 C7          -0.9430    -2.8000     0.2590 ca         1 A61      -0.073000
     10 S8          -4.0150    -0.2640     0.8170 sy         1 A61       1.186600
     11 O9          -5.0080    -1.1760     0.2730 o          1 A61      -0.540500
     12 O10         -4.3110     0.4310     2.0630 o          1 A61      -0.540500
     13 N11         -3.6260     0.8230    -0.3500 n3         1 A61      -0.788500
     14 C12         -4.3450     0.8960    -1.6270 c3         1 A61       0.239800
     15 C13         -5.5030     1.9030    -1.6780 c3         1 A61      -0.074700
     16 C14         -6.6970     1.5010    -0.8070 c3         1 A61      -0.073900
     17 C15         -5.0750     3.3400    -1.3730 c3         1 A61      -0.073900
     18 C16         -2.4460     1.6430    -0.0980 c3         1 A61       0.190800
     19 C17         -1.1810     1.1760    -0.8350 c3         1 A61       0.133300
     20 C18         -4.1190     3.9440    -2.3930 c3         1 A61      -0.092600
     21 O18         -1.0990     1.6690    -2.1550 oh         1 A61      -0.652000
     22 C19          0.0850     1.4850    -0.0270 c3         1 A61       0.092700
     23 C20         -7.4770     0.3020    -1.3290 c3         1 A61      -0.092600
     24 N20          1.2320     0.9520    -0.7170 ns         1 A61      -0.487900
     25 C21          2.2110     0.2760    -0.0850 c          1 A61       0.648100
     26 O22          2.1900    -0.0980     1.0650 o          1 A61      -0.537000
     27 O23          3.2320     0.0440    -0.9300 os         1 A61      -0.451100
     28 C24          4.3770    -0.6000    -0.4050 c5         1 A61       0.163300
     29 C25          4.2070    -2.0930    -0.1270 c5         1 A61       0.129600
     30 O26          5.5330    -2.5890    -0.1560 os         1 A61      -0.447000
     31 C27          6.3090    -1.8420    -1.0560 c5         1 A61       0.376300
     32 O28          6.5560    -2.5700    -2.2270 os         1 A61      -0.461000
     33 C29          6.1600    -1.8180    -3.3650 c5         1 A61       0.154600
     34 C30          5.0420    -0.9130    -2.8770 c5         1 A61      -0.103400
     35 C31          5.4880    -0.6020    -1.4460 c5         1 A61      -0.131700
     36 C32          0.2670     2.9800     0.2840 c3         1 A61      -0.056100
     37 C33          2.7110     3.5370     0.5420 ca         1 A61      -0.099000
     38 C34          3.8540     3.6750     1.3190 ca         1 A61      -0.105500
     39 C35          3.7870     3.4970     2.6930 ca         1 A61      -0.104000
     40 C36          2.5710     3.1810     3.2860 ca         1 A61      -0.105500
     41 C37          1.4340     3.0380     2.5050 ca         1 A61      -0.099000
     42 C38          1.4890     3.2130     1.1250 ca         1 A61      -0.088300
     43 H1           2.4640    -3.0800     3.1880 h5         1 A61       0.061800
     44 H4          -2.0790    -0.2170     2.9660 ha         1 A61       0.147000
     45 H6          -2.7430    -2.2850    -0.7560 ha         1 A61       0.133000
     46 H7          -0.6280    -3.5200    -0.4850 ha         1 A61       0.137000
     47 H12         -3.6060     1.1340    -2.3920 h1         1 A61       0.063700
     48 H12A        -4.7120    -0.0970    -1.8850 h1         1 A61       0.063700
     49 H13         -5.8430     1.8800    -2.7230 hc         1 A61       0.053700
     50 H14         -6.3700     1.3280     0.2220 hc         1 A61       0.040950
     51 H14A        -7.3790     2.3550    -0.7530 hc         1 A61       0.040950
     52 H15         -5.9730     3.9620    -1.3410 hc         1 A61       0.040950
     53 H15A        -4.6540     3.3930    -0.3630 hc         1 A61       0.040950
     54 H16         -2.6700     2.6820    -0.3520 h1         1 A61       0.062700
     55 H16A        -2.2630     1.6630     0.9780 h1         1 A61       0.062700
     56 H17         -1.2240     0.0910    -0.9420 h1         1 A61       0.096700
     57 H18         -4.6000     4.0270    -3.3690 hc         1 A61       0.034867
     58 H18A        -3.8030     4.9440    -2.0940 hc         1 A61       0.034867
     59 H18B        -3.2180     3.3470    -2.5350 hc         1 A61       0.034867
     60 HO18        -1.0630     2.6320    -2.1410 ho         1 A61       0.440000
     61 H19          0.0030     0.9460     0.9190 h1         1 A61       0.091700
     62 H20         -8.3110     0.0610    -0.6680 hc         1 A61       0.034867
     63 H20A        -7.8910     0.5110    -2.3170 hc         1 A61       0.034867
     64 H20B        -6.8600    -0.5910    -1.4090 hc         1 A61       0.034867
     65 HN20         1.3980     1.2650    -1.6610 hn         1 A61       0.332500
     66 H24          4.7120    -0.0890     0.5030 h1         1 A61       0.073700
     67 H25          3.7780    -2.3100     0.8490 h1         1 A61       0.070200
     68 H25A         3.5720    -2.5600    -0.8910 h1         1 A61       0.070200
     69 H27          7.2580    -1.6150    -0.5600 h2         1 A61       0.086700
     70 H29          7.0030    -1.2300    -3.7480 h1         1 A61       0.049200
     71 H29A         5.8480    -2.5070    -4.1490 h1         1 A61       0.049200
     72 H30          4.9340    -0.0200    -3.4900 hc         1 A61       0.064700
     73 H30A         4.0910    -1.4490    -2.8950 hc         1 A61       0.064700
     74 H31          6.0920     0.3050    -1.4120 hc         1 A61       0.077700
     75 H32          0.3430     3.5520    -0.6450 hc         1 A61       0.051200
     76 H32A        -0.6180     3.3500     0.8090 hc         1 A61       0.051200
     77 H34          4.7960     3.9280     0.8490 ha         1 A61       0.113500
     78 H35          4.6760     3.6080     3.3010 ha         1 A61       0.114000
     79 H36          2.5090     3.0450     4.3580 ha         1 A61       0.113500
     80 H37          0.4910     2.7810     2.9740 ha         1 A61       0.108500
     81 H33          2.7710     3.6820    -0.5300 ha         1 A61       0.108500
@<TRIPOS>BOND
     1     1     2 2   
     2     1     3 1   
     3     1    43 1   
     4     2     4 1   
     5     3     5 1   
     6     4     5 ar  
     7     4     9 ar  
     8     5     6 ar  
     9     6     7 ar  
    10     6    44 1   
    11     7     8 ar  
    12     7    10 1   
    13     8     9 ar  
    14     8    45 1   
    15     9    46 1   
    16    10    11 2   
    17    10    12 2   
    18    10    13 1   
    19    13    14 1   
    20    13    18 1   
    21    14    15 1   
    22    14    47 1   
    23    14    48 1   
    24    15    16 1   
    25    15    17 1   
    26    15    49 1   
    27    16    23 1   
    28    16    50 1   
    29    16    51 1   
    30    17    20 1   
    31    17    52 1   
    32    17    53 1   
    33    18    19 1   
    34    18    54 1   
    35    18    55 1   
    36    19    21 1   
    37    19    22 1   
    38    19    56 1   
    39    20    57 1   
    40    20    58 1   
    41    20    59 1   
    42    21    60 1   
    43    22    24 1   
    44    22    36 1   
    45    22    61 1   
    46    23    62 1   
    47    23    63 1   
    48    23    64 1   
    49    24    25 1   
    50    24    65 1   
    51    25    26 2   
    52    25    27 1   
    53    27    28 1   
    54    28    29 1   
    55    28    35 1   
    56    28    66 1   
    57    29    30 1   
    58    29    67 1   
    59    29    68 1   
    60    30    31 1   
    61    31    32 1   
    62    31    35 1   
    63    31    69 1   
    64    32    33 1   
    65    33    34 1   
    66    33    70 1   
    67    33    71 1   
    68    34    35 1   
    69    34    72 1   
    70    34    73 1   
    71    35    74 1   
    72    36    42 1   
    73    36    75 1   
    74    36    76 1   
    75    37    38 ar  
    76    37    42 ar  
    77    37    81 1   
    78    38    39 ar  
    79    38    77 1   
    80    39    40 ar  
    81    39    78 1   
    82    40    41 ar  
    83    40    79 1   
    84    41    42 ar  
    85    41    80 1   
@<TRIPOS>SUBSTRUCTURE
     1 A61         1 TEMP              0 ****  ****    0 ROOT
