@<TRIPOS>MOLECULE
A61
   81    85     1     0     0
SMALL
No Charge or Current Charge


@<TRIPOS>ATOM
      1 C1          -0.2600    -0.4170     5.5340 cc         1 A61       0.410100
      2 N1           0.4070    -1.0480     4.5530 nd         1 A61      -0.537100
      3 S1          -1.9190     0.1350     5.2140 ss         1 A61       0.083800
      4 C2          -0.4410    -1.1090     3.4540 ca         1 A61       0.141400
      5 C3          -1.6920    -0.5480     3.6120 ca         1 A61      -0.219000
      6 C4          -2.6420    -0.5410     2.5790 ca         1 A61       0.029000
      7 C5          -2.2900    -1.1100     1.3370 ca         1 A61      -0.291500
      8 C6          -1.0140    -1.7010     1.1690 ca         1 A61      -0.038000
      9 C7          -0.0890    -1.6990     2.2320 ca         1 A61      -0.073000
     10 S8          -3.4770    -1.0630    -0.0210 sy         1 A61       1.186600
     11 O9          -2.9250    -1.8010    -1.1620 o          1 A61      -0.540500
     12 O10         -4.7950    -1.3620     0.5470 o          1 A61      -0.540500
     13 N11         -3.5180     0.5910    -0.4620 n3         1 A61      -0.788500
     14 C12         -4.2180     0.8820    -1.7430 c3         1 A61       0.239800
     15 C13         -5.4210     1.8780    -1.6410 c3         1 A61      -0.074700
     16 C14         -6.5840     1.3350    -0.7600 c3         1 A61      -0.073900
     17 C15         -5.0300     3.3210    -1.2050 c3         1 A61      -0.073900
     18 C16         -2.3020     1.4110    -0.1780 c3         1 A61       0.190800
     19 C17         -1.0110     1.0710    -1.0000 c3         1 A61       0.133300
     20 C18         -4.0990     4.0620    -2.1890 c3         1 A61      -0.092600
     21 O18         -0.9740     1.7920    -2.2540 oh         1 A61      -0.652000
     22 C19          0.3020     1.3200    -0.1970 c3         1 A61       0.092700
     23 C20         -7.2920     0.0850    -1.3280 c3         1 A61      -0.092600
     24 N20          1.4680     0.8880    -0.9770 ns         1 A61      -0.487900
     25 C21          2.4860     0.1050    -0.5120 c          1 A61       0.648100
     26 O22          2.5490    -0.3760     0.6080 o          1 A61      -0.537000
     27 O23          3.3920    -0.0620    -1.5200 os         1 A61      -0.451100
     28 C24          4.5230    -0.9150    -1.1880 c5         1 A61       0.163300
     29 C25          4.0960    -2.4090    -1.1380 c5         1 A61       0.129600
     30 O26          5.3470    -3.0990    -1.3470 os         1 A61      -0.447000
     31 C27          6.0750    -2.4000    -2.3770 c5         1 A61       0.376300
     32 O28          5.7040    -2.9680    -3.6480 os         1 A61      -0.461000
     33 C29          5.5960    -1.8810    -4.5820 c5         1 A61       0.154600
     34 C30          4.7760    -0.8580    -3.7740 c5         1 A61      -0.103400
     35 C31          5.5250    -0.9340    -2.3930 c5         1 A61      -0.131700
     36 C32          0.4960     2.7740     0.3110 c3         1 A61      -0.056100
     37 C33          2.8790     3.5060     0.8470 ca         1 A61      -0.099000
     38 C34          3.9700     3.6010     1.7280 ca         1 A61      -0.105500
     39 C35          3.8680     3.0880     3.0330 ca         1 A61      -0.104000
     40 C36          2.6730     2.4800     3.4550 ca         1 A61      -0.105500
     41 C37          1.5820     2.3860     2.5750 ca         1 A61      -0.099000
     42 C38          1.6790     2.8980     1.2650 ca         1 A61      -0.088300
     43 H1           0.1570    -0.2250     6.5130 h5         1 A61       0.061800
     44 H4          -3.6200    -0.0840     2.7300 ha         1 A61       0.147000
     45 H6          -0.7300    -2.1520     0.2200 ha         1 A61       0.133000
     46 H7           0.8940    -2.1430     2.1040 ha         1 A61       0.137000
     47 H12         -3.5080     1.2660    -2.4860 h1         1 A61       0.063700
     48 H12A        -4.6070    -0.0440    -2.1860 h1         1 A61       0.063700
     49 H13         -5.8240     1.9700    -2.6570 hc         1 A61       0.053700
     50 H14         -6.2120     1.1170     0.2490 hc         1 A61       0.040950
     51 H14A        -7.3440     2.1170    -0.6440 hc         1 A61       0.040950
     52 H15         -5.9430     3.9210    -1.1090 hc         1 A61       0.040950
     53 H15A        -4.5800     3.3010    -0.2060 hc         1 A61       0.040950
     54 H16         -2.5230     2.4720    -0.3350 h1         1 A61       0.062700
     55 H16A        -2.0570     1.3470     0.8880 h1         1 A61       0.062700
     56 H17         -1.0290    -0.0050    -1.2130 h1         1 A61       0.096700
     57 H18         -4.5640     4.1340    -3.1800 hc         1 A61       0.034867
     58 H18A        -3.9020     5.0790    -1.8310 hc         1 A61       0.034867
     59 H18B        -3.1370     3.5510    -2.2980 hc         1 A61       0.034867
     60 HO18        -0.8770     2.7460    -2.0480 ho         1 A61       0.440000
     61 H19          0.2420     0.6810     0.6950 h1         1 A61       0.091700
     62 H20         -8.1230    -0.2080    -0.6750 hc         1 A61       0.034867
     63 H20A        -7.6990     0.2900    -2.3250 hc         1 A61       0.034867
     64 H20B        -6.6090    -0.7680    -1.4040 hc         1 A61       0.034867
     65 HN20         1.5450     1.1840    -1.9410 hn         1 A61       0.332500
     66 H24          5.0070    -0.5860    -0.2570 h1         1 A61       0.073700
     67 H25          3.6650    -2.7020    -0.1710 h1         1 A61       0.070200
     68 H25A         3.3940    -2.6720    -1.9400 h1         1 A61       0.070200
     69 H27          7.1610    -2.4500    -2.2170 h2         1 A61       0.086700
     70 H29          6.5990    -1.5090    -4.8330 h1         1 A61       0.049200
     71 H29A         5.0900    -2.2140    -5.4980 h1         1 A61       0.049200
     72 H30          4.8020     0.1440    -4.2150 hc         1 A61       0.064700
     73 H30A         3.7270    -1.1750    -3.7350 hc         1 A61       0.064700
     74 H31          6.3250    -0.1920    -2.2990 hc         1 A61       0.077700
     75 H32          0.6240     3.4480    -0.5450 hc         1 A61       0.051200
     76 H32A        -0.4080     3.1120     0.8300 hc         1 A61       0.051200
     77 H34          4.8950     4.0690     1.3990 ha         1 A61       0.113500
     78 H35          4.7130     3.1600     3.7140 ha         1 A61       0.114000
     79 H36          2.5940     2.0800     4.4630 ha         1 A61       0.113500
     80 H37          0.6640     1.9080     2.9090 ha         1 A61       0.108500
     81 H33          2.9700     3.8990    -0.1630 ha         1 A61       0.108500
@<TRIPOS>BOND
     1     1     2 2   
     2     1     3 1   
     3     1    43 1   
     4     2     4 1   
     5     3     5 1   
     6     4     5 ar  
     7     4     9 ar  
     8     5     6 ar  
     9     6     7 ar  
    10     6    44 1   
    11     7     8 ar  
    12     7    10 1   
    13     8     9 ar  
    14     8    45 1   
    15     9    46 1   
    16    10    11 2   
    17    10    12 2   
    18    10    13 1   
    19    13    14 1   
    20    13    18 1   
    21    14    15 1   
    22    14    47 1   
    23    14    48 1   
    24    15    16 1   
    25    15    17 1   
    26    15    49 1   
    27    16    23 1   
    28    16    50 1   
    29    16    51 1   
    30    17    20 1   
    31    17    52 1   
    32    17    53 1   
    33    18    19 1   
    34    18    54 1   
    35    18    55 1   
    36    19    21 1   
    37    19    22 1   
    38    19    56 1   
    39    20    57 1   
    40    20    58 1   
    41    20    59 1   
    42    21    60 1   
    43    22    24 1   
    44    22    36 1   
    45    22    61 1   
    46    23    62 1   
    47    23    63 1   
    48    23    64 1   
    49    24    25 1   
    50    24    65 1   
    51    25    26 2   
    52    25    27 1   
    53    27    28 1   
    54    28    29 1   
    55    28    35 1   
    56    28    66 1   
    57    29    30 1   
    58    29    67 1   
    59    29    68 1   
    60    30    31 1   
    61    31    32 1   
    62    31    35 1   
    63    31    69 1   
    64    32    33 1   
    65    33    34 1   
    66    33    70 1   
    67    33    71 1   
    68    34    35 1   
    69    34    72 1   
    70    34    73 1   
    71    35    74 1   
    72    36    42 1   
    73    36    75 1   
    74    36    76 1   
    75    37    38 ar  
    76    37    42 ar  
    77    37    81 1   
    78    38    39 ar  
    79    38    77 1   
    80    39    40 ar  
    81    39    78 1   
    82    40    41 ar  
    83    40    79 1   
    84    41    42 ar  
    85    41    80 1   
@<TRIPOS>SUBSTRUCTURE
     1 A61         1 TEMP              0 ****  ****    0 ROOT
