@<TRIPOS>MOLECULE
A62
   50    52     1     0     0
SMALL
abcg2


@<TRIPOS>ATOM
      1 C            3.4610    -2.9010     0.3270 c3         1 A62       0.169600
      2 N            0.9550    -0.2430    -0.1710 n          1 A62      -0.425800
      3 O            3.0520    -4.0010    -0.4540 oh         1 A62      -0.664000
      4 C1           2.8320    -1.6480    -0.2400 c5         1 A62      -0.077700
      5 C2           1.3060    -1.6580    -0.2240 c5         1 A62       0.114000
      6 O2          -2.8430     0.0020     1.1640 oh         1 A62      -0.634000
      7 C3           2.1050     0.6040     0.1020 c5         1 A62       0.110000
      8 C4           3.1730    -0.3880     0.5640 c5         1 A62      -0.036400
      9 C5           4.5830     0.1040     0.4020 ca         1 A62      -0.076300
     10 C6           5.4230     0.2240     1.5030 ca         1 A62      -0.096000
     11 C7           6.7330     0.6650     1.3710 ca         1 A62      -0.101500
     12 C8           7.2080     0.9890     0.1110 ca         1 A62       0.122000
     13 C9           6.3940     0.8820    -1.0070 ca         1 A62      -0.101500
     14 C10          5.0890     0.4430    -0.8530 ca         1 A62      -0.096000
     15 C11         -0.2700     0.2770    -0.3470 c          1 A62       0.613100
     16 C12         -1.3880    -0.7060    -0.6340 c3         1 A62      -0.193400
     17 C13         -2.7570    -0.1770    -0.2310 c3         1 A62       0.180300
     18 C14         -3.8640    -1.0940    -0.7640 c3         1 A62      -0.068100
     19 C15         -5.2310    -0.6070    -0.3840 ca         1 A62      -0.069300
     20 C16         -5.8850     0.3470    -1.1600 ca         1 A62      -0.092500
     21 C17         -7.1320     0.8390    -0.8010 ca         1 A62      -0.100500
     22 C18         -7.7330     0.3670     0.3550 ca         1 A62       0.121000
     23 C19         -7.1090    -0.5830     1.1470 ca         1 A62      -0.100500
     24 C20         -5.8610    -1.0590     0.7720 ca         1 A62      -0.092500
     25 H            3.1510    -3.0110     1.3760 h1         1 A62       0.026700
     26 HA           4.5530    -2.7880     0.3250 h1         1 A62       0.026700
     27 HO           3.4530    -4.7950    -0.0880 ho         1 A62       0.448000
     28 H1           3.1740    -1.5110    -1.2720 hc         1 A62       0.074700
     29 H2           0.9300    -2.1880     0.6590 h1         1 A62       0.050200
     30 H2A          0.8920    -2.1430    -1.1080 h1         1 A62       0.050200
     31 H3           2.4220     1.1330    -0.8020 h1         1 A62       0.062700
     32 H3A          1.8840     1.3520     0.8630 h1         1 A62       0.062700
     33 H4           3.0020    -0.6030     1.6250 hc         1 A62       0.062700
     34 H6           5.0540    -0.0290     2.4900 ha         1 A62       0.118000
     35 H7           7.3700     0.7530     2.2400 ha         1 A62       0.131000
     36 H9           6.7710     1.1370    -1.9880 ha         1 A62       0.131000
     37 H10          4.4630     0.3660    -1.7340 ha         1 A62       0.118000
     38 H12         -1.3690    -0.9240    -1.7080 hc         1 A62       0.061200
     39 H12A        -1.2120    -1.6630    -0.1370 hc         1 A62       0.061200
     40 H13         -2.9020     0.8170    -0.6620 h1         1 A62       0.101700
     41 H14         -3.7740    -1.1440    -1.8520 hc         1 A62       0.049700
     42 H14A        -3.7090    -2.1120    -0.3920 hc         1 A62       0.049700
     43 H16         -5.4180     0.7140    -2.0660 ha         1 A62       0.113500
     44 H17         -7.6270     1.5760    -1.4180 ha         1 A62       0.128500
     45 H19         -7.5870    -0.9490     2.0460 ha         1 A62       0.128500
     46 H20         -5.3800    -1.8070     1.3910 ha         1 A62       0.113500
     47 HO2         -2.7310    -0.8560     1.5890 ho         1 A62       0.429000
     48 CL           8.8430     1.5360    -0.0720 cl         1 A62      -0.200000
     49 O1          -0.4650     1.4860    -0.3090 o          1 A62      -0.593100
     50 CL1         -9.2950     0.9710     0.8120 cl         1 A62      -0.208000
@<TRIPOS>BOND
     1     1     3 1   
     2     1     4 1   
     3     1    25 1   
     4     1    26 1   
     5     2     5 1   
     6     2     7 1   
     7     2    15 1   
     8     3    27 1   
     9     4     5 1   
    10     4     8 1   
    11     4    28 1   
    12     5    29 1   
    13     5    30 1   
    14     6    17 1   
    15     6    47 1   
    16     7     8 1   
    17     7    31 1   
    18     7    32 1   
    19     8     9 1   
    20     8    33 1   
    21     9    10 ar  
    22     9    14 ar  
    23    10    11 ar  
    24    10    34 1   
    25    11    12 ar  
    26    11    35 1   
    27    12    13 ar  
    28    12    48 1   
    29    13    14 ar  
    30    13    36 1   
    31    14    37 1   
    32    15    16 1   
    33    15    49 2   
    34    16    17 1   
    35    16    38 1   
    36    16    39 1   
    37    17    18 1   
    38    17    40 1   
    39    18    19 1   
    40    18    41 1   
    41    18    42 1   
    42    19    20 ar  
    43    19    24 ar  
    44    20    21 ar  
    45    20    43 1   
    46    21    22 ar  
    47    21    44 1   
    48    22    23 ar  
    49    22    50 1   
    50    23    24 ar  
    51    23    45 1   
    52    24    46 1   
@<TRIPOS>SUBSTRUCTURE
     1 A62         1 TEMP              0 ****  ****    0 ROOT
