@<TRIPOS>MOLECULE
A62
   50    52     1     0     0
SMALL
No Charge or Current Charge


@<TRIPOS>ATOM
      1 C            2.9730    -2.6800     0.9810 c3         1 A62       0.169600
      2 N            0.9590    -0.1610    -0.9700 n          1 A62      -0.425800
      3 O            2.6820    -3.9840     0.4630 oh         1 A62      -0.664000
      4 C1           2.6010    -1.5980    -0.0580 c5         1 A62      -0.077700
      5 C2           1.0900    -1.5320    -0.4190 c5         1 A62       0.114000
      6 O2          -2.1250    -0.5540     0.4330 oh         1 A62      -0.634000
      7 C3           2.1380     0.6880    -0.6930 c5         1 A62       0.110000
      8 C4           2.8390    -0.1380     0.4220 c5         1 A62      -0.036400
      9 C5           4.3430     0.1750     0.4340 ca         1 A62      -0.076300
     10 C6           4.9420     0.5950     1.6400 ca         1 A62      -0.096000
     11 C7           6.3160     0.8870     1.7000 ca         1 A62      -0.101500
     12 C8           7.1100     0.7600     0.5510 ca         1 A62       0.122000
     13 C9           6.5320     0.3420    -0.6570 ca         1 A62      -0.101500
     14 C10          5.1580     0.0510    -0.7160 ca         1 A62      -0.096000
     15 C11         -0.1800     0.3320    -1.6420 c          1 A62       0.613100
     16 C12         -1.3960    -0.5780    -1.8750 c3         1 A62      -0.193400
     17 C13         -2.5360    -0.2290    -0.8980 c3         1 A62       0.180300
     18 C14         -3.8420    -0.9940    -1.2210 c3         1 A62      -0.068100
     19 C15         -4.9900    -0.6280    -0.2850 ca         1 A62      -0.069300
     20 C16         -5.6210     0.6270    -0.3960 ca         1 A62      -0.092500
     21 C17         -6.6780     0.9680     0.4670 ca         1 A62      -0.100500
     22 C18         -7.1090     0.0550     1.4430 ca         1 A62       0.121000
     23 C19         -6.4870    -1.1990     1.5580 ca         1 A62      -0.100500
     24 C20         -5.4300    -1.5400     0.6950 ca         1 A62      -0.092500
     25 H            2.4090    -2.5010     1.9060 h1         1 A62       0.026700
     26 HA           4.0420    -2.5950     1.2170 h1         1 A62       0.026700
     27 HO           2.9560    -4.6320     1.1500 ho         1 A62       0.448000
     28 H1           3.1770    -1.8200    -0.9630 hc         1 A62       0.074700
     29 H2           0.4550    -1.6550     0.4690 h1         1 A62       0.050200
     30 H2A          0.8290    -2.3100    -1.1480 h1         1 A62       0.050200
     31 H3           2.7470     0.7980    -1.5990 h1         1 A62       0.062700
     32 H3A          1.8600     1.6900    -0.3390 h1         1 A62       0.062700
     33 H4           2.3610     0.0420     1.3930 hc         1 A62       0.062700
     34 H6           4.3400     0.6970     2.5410 ha         1 A62       0.118000
     35 H7           6.7650     1.2100     2.6360 ha         1 A62       0.131000
     36 H9           7.1490     0.2440    -1.5470 ha         1 A62       0.131000
     37 H10          4.7350    -0.2730    -1.6640 ha         1 A62       0.118000
     38 H12         -1.7580    -0.4060    -2.8940 hc         1 A62       0.061200
     39 H12A        -1.1490    -1.6360    -1.7530 hc         1 A62       0.061200
     40 H13         -2.7440     0.8490    -0.9810 h1         1 A62       0.101700
     41 H14         -4.1350    -0.7740    -2.2550 hc         1 A62       0.049700
     42 H14A        -3.6460    -2.0730    -1.1860 hc         1 A62       0.049700
     43 H16         -5.2950     1.3390    -1.1510 ha         1 A62       0.113500
     44 H17         -7.1620     1.9370     0.3790 ha         1 A62       0.128500
     45 H19         -6.8230    -1.9040     2.3140 ha         1 A62       0.128500
     46 H20         -4.9540    -2.5140     0.7910 ha         1 A62       0.113500
     47 HO2         -2.9220    -0.4710     0.9990 ho         1 A62       0.429000
     48 Cl           8.8300     1.1240     0.6240 cl         1 A62      -0.200000
     49 O1          -0.1950     1.4830    -2.0610 o          1 A62      -0.593100
     50 Cl1         -8.4310     0.4810     2.5220 cl         1 A62      -0.208000
@<TRIPOS>BOND
     1     1     3 1   
     2     1     4 1   
     3     1    25 1   
     4     1    26 1   
     5     2     5 1   
     6     2     7 1   
     7     2    15 1   
     8     3    27 1   
     9     4     5 1   
    10     4     8 1   
    11     4    28 1   
    12     5    29 1   
    13     5    30 1   
    14     6    17 1   
    15     6    47 1   
    16     7     8 1   
    17     7    31 1   
    18     7    32 1   
    19     8     9 1   
    20     8    33 1   
    21     9    10 ar  
    22     9    14 ar  
    23    10    11 ar  
    24    10    34 1   
    25    11    12 ar  
    26    11    35 1   
    27    12    13 ar  
    28    12    48 1   
    29    13    14 ar  
    30    13    36 1   
    31    14    37 1   
    32    15    16 1   
    33    15    49 2   
    34    16    17 1   
    35    16    38 1   
    36    16    39 1   
    37    17    18 1   
    38    17    40 1   
    39    18    19 1   
    40    18    41 1   
    41    18    42 1   
    42    19    20 ar  
    43    19    24 ar  
    44    20    21 ar  
    45    20    43 1   
    46    21    22 ar  
    47    21    44 1   
    48    22    23 ar  
    49    22    50 1   
    50    23    24 ar  
    51    23    45 1   
    52    24    46 1   
@<TRIPOS>SUBSTRUCTURE
     1 A62         1 TEMP              0 ****  ****    0 ROOT
