@<TRIPOS>MOLECULE
A63
   31    33     1     0     0
SMALL
abcg2


@<TRIPOS>ATOM
      1 CAQ         -5.9930     1.3290     0.0290 c3         1 A63       0.146900
      2 OAO         -5.3630     0.0610    -0.0190 os         1 A63      -0.335100
      3 CAK         -4.0260     0.0080    -0.0170 ca         1 A63       0.168100
      4 CAM         -3.1910     1.1230     0.0180 ca         1 A63      -0.184500
      5 CAI         -1.8150     0.9570     0.0190 ca         1 A63      -0.031500
      6 CAL         -3.4540    -1.2690    -0.0520 ca         1 A63      -0.184500
      7 CAJ         -2.0870    -1.4200    -0.0490 ca         1 A63      -0.031500
      8 CAG         -1.2330    -0.3100    -0.0120 ca         1 A63      -0.118800
      9 CAA          0.2200    -0.4780    -0.0020 cc         1 A63       0.225900
     10 OAC          0.8730     0.6920    -0.0170 os         1 A63      -0.223200
     11 CAF          2.2230     0.7410    -0.0060 ca         1 A63       0.154100
     12 CAP          2.8050     2.0050    -0.0220 ca         1 A63      -0.143000
     13 CAS          4.1820     2.1000    -0.0130 ca         1 A63      -0.058000
     14 CAR          4.9770     0.9520     0.0120 ca         1 A63      -0.148000
     15 CAN          4.3860    -0.2930     0.0280 ca         1 A63      -0.024000
     16 CAE          2.9940    -0.4180     0.0180 ca         1 A63      -0.225600
     17 CAD          2.3260    -1.7260     0.0350 c          1 A63       0.597900
     18 OAH          2.9500    -2.7810     0.0590 o          1 A63      -0.547100
     19 CAB          0.8860    -1.6580     0.0230 cd         1 A63      -0.399200
     20 H1          -5.7430     1.9390    -0.8420 h1         1 A63       0.045033
     21 H2          -7.0640     1.1400     0.0320 h1         1 A63       0.045033
     22 H3          -5.7270     1.8780     0.9350 h1         1 A63       0.045033
     23 H4          -3.5900     2.1270     0.0450 ha         1 A63       0.128000
     24 H5          -1.2020     1.8470     0.0480 ha         1 A63       0.125500
     25 H6          -4.0970    -2.1400    -0.0820 ha         1 A63       0.128000
     26 H7          -1.6900    -2.4250    -0.0810 ha         1 A63       0.125500
     27 H8           2.1810     2.8890    -0.0400 ha         1 A63       0.131000
     28 H9           4.6450     3.0780    -0.0260 ha         1 A63       0.119000
     29 H10          6.0550     1.0420     0.0180 ha         1 A63       0.122000
     30 H11          4.9930    -1.1880     0.0470 ha         1 A63       0.138000
     31 H12          0.3350    -2.5870     0.0400 ha         1 A63       0.212000
@<TRIPOS>BOND
     1     1     2 1   
     2     1    20 1   
     3     1    21 1   
     4     1    22 1   
     5     2     3 1   
     6     3     4 ar  
     7     3     6 ar  
     8     4     5 ar  
     9     4    23 1   
    10     5     8 ar  
    11     5    24 1   
    12     6     7 ar  
    13     6    25 1   
    14     7     8 ar  
    15     7    26 1   
    16     8     9 1   
    17     9    10 1   
    18     9    19 2   
    19    10    11 1   
    20    11    12 ar  
    21    11    16 ar  
    22    12    13 ar  
    23    12    27 1   
    24    13    14 ar  
    25    13    28 1   
    26    14    15 ar  
    27    14    29 1   
    28    15    16 ar  
    29    15    30 1   
    30    16    17 1   
    31    17    18 2   
    32    17    19 1   
    33    19    31 1   
@<TRIPOS>SUBSTRUCTURE
     1 A63         1 TEMP              0 ****  ****    0 ROOT
