@<TRIPOS>MOLECULE
A63
   31    33     1     0     0
SMALL
No Charge or Current Charge


@<TRIPOS>ATOM
      1 CAQ         -6.2240     1.1490     0.0840 c3         1 A63       0.146900
      2 OAO         -5.4400     0.0130    -0.3220 os         1 A63      -0.335100
      3 CAK         -4.0660    -0.0150    -0.1980 ca         1 A63       0.168100
      4 CAM         -3.3270     1.0630     0.3310 ca         1 A63      -0.184500
      5 CAI         -1.9270     0.9760     0.4310 ca         1 A63      -0.031500
      6 CAL         -3.3920    -1.1680    -0.6250 ca         1 A63      -0.184500
      7 CAJ         -1.9930    -1.2570    -0.5250 ca         1 A63      -0.031500
      8 CAG         -1.2460    -0.1860     0.0110 ca         1 A63      -0.118800
      9 CAA          0.2150    -0.2600     0.1160 cc         1 A63       0.225900
     10 OAC          0.9340     0.9220     0.0340 os         1 A63      -0.223200
     11 CAF          2.3150     0.8110    -0.0510 ca         1 A63       0.154100
     12 CAP          3.0270     1.9820    -0.3640 ca         1 A63      -0.143000
     13 CAS          4.4300     1.9730    -0.4400 ca         1 A63      -0.058000
     14 CAR          5.1330     0.7840    -0.1920 ca         1 A63      -0.148000
     15 CAN          4.4340    -0.3900     0.1320 ca         1 A63      -0.024000
     16 CAE          3.0250    -0.3760     0.2050 ca         1 A63      -0.225600
     17 CAD          2.2640    -1.5940     0.5430 c          1 A63       0.597900
     18 OAH          2.7950    -2.6500     0.8570 o          1 A63      -0.547100
     19 CAB          0.8270    -1.4490     0.4470 cd         1 A63      -0.399200
     20 H1          -5.9350     2.0450    -0.4790 h1         1 A63       0.045033
     21 H2          -7.2890     0.9610    -0.1000 h1         1 A63       0.045033
     22 H3          -6.0960     1.3490     1.1560 h1         1 A63       0.045033
     23 H4          -3.8160     1.9720     0.6680 ha         1 A63       0.128000
     24 H5          -1.3710     1.8160     0.8450 ha         1 A63       0.125500
     25 H6          -3.9580    -1.9980    -1.0400 ha         1 A63       0.128000
     26 H7          -1.4940    -2.1570    -0.8780 ha         1 A63       0.125500
     27 H8           2.4840     2.9060    -0.5490 ha         1 A63       0.131000
     28 H9           4.9690     2.8850    -0.6870 ha         1 A63       0.119000
     29 H10          6.2190     0.7720    -0.2480 ha         1 A63       0.122000
     30 H11          4.9890    -1.3070     0.3260 ha         1 A63       0.138000
     31 H12          0.2710    -2.3560     0.6400 ha         1 A63       0.212000
@<TRIPOS>BOND
     1     1     2 1   
     2     1    20 1   
     3     1    21 1   
     4     1    22 1   
     5     2     3 1   
     6     3     4 ar  
     7     3     6 ar  
     8     4     5 ar  
     9     4    23 1   
    10     5     8 ar  
    11     5    24 1   
    12     6     7 ar  
    13     6    25 1   
    14     7     8 ar  
    15     7    26 1   
    16     8     9 1   
    17     9    10 1   
    18     9    19 2   
    19    10    11 1   
    20    11    12 ar  
    21    11    16 ar  
    22    12    13 ar  
    23    12    27 1   
    24    13    14 ar  
    25    13    28 1   
    26    14    15 ar  
    27    14    29 1   
    28    15    16 ar  
    29    15    30 1   
    30    16    17 1   
    31    17    18 2   
    32    17    19 1   
    33    19    31 1   
@<TRIPOS>SUBSTRUCTURE
     1 A63         1 TEMP              0 ****  ****    0 ROOT
