@<TRIPOS>MOLECULE
A64
   36    38     1     0     0
SMALL
No Charge or Current Charge


@<TRIPOS>ATOM
      1 CAS         -5.9860    -0.4500     1.0330 c3         1 A64      -0.085100
      2 CAP         -3.7530     0.3190     0.0930 ca         1 A64      -0.048300
      3 CAO         -2.9200     1.3800     0.4980 ca         1 A64      -0.116000
      4 CAN         -1.5240     1.2190     0.5380 ca         1 A64      -0.070500
      5 CAL         -3.1620    -0.9060    -0.2750 ca         1 A64      -0.116000
      6 CAM         -1.7670    -1.0690    -0.2340 ca         1 A64      -0.070500
      7 CAK         -0.9320    -0.0090     0.1790 ca         1 A64      -0.079800
      8 CAI          0.5270    -0.1630     0.2190 cc         1 A64       0.213900
      9 OAJ          1.3070     0.9650     0.0160 os         1 A64      -0.218200
     10 CAF          2.6730     0.7660    -0.1250 ca         1 A64       0.153100
     11 CAA          3.4330     1.8680    -0.5550 ca         1 A64      -0.142000
     12 CAB          4.8280     1.7700    -0.6960 ca         1 A64      -0.058000
     13 CAC          5.4750     0.5610    -0.3970 ca         1 A64      -0.147000
     14 CAD          4.7290    -0.5440     0.0430 ca         1 A64      -0.025000
     15 CAE          3.3280    -0.4410     0.1810 ca         1 A64      -0.226600
     16 CAG          2.5180    -1.5860     0.6420 c          1 A64       0.597900
     17 OAQ          3.0050    -2.6470     1.0040 o          1 A64      -0.544100
     18 CAH          1.0890    -1.3610     0.6050 cd         1 A64      -0.393200
     19 C1          -5.2710     0.5060     0.0520 c3         1 A64      -0.020400
     20 C           -5.8200     0.3640    -1.3850 c3         1 A64      -0.085100
     21 HAS1        -5.5970    -0.3170     2.0500 hc         1 A64       0.036867
     22 HAS2        -7.0640    -0.2480     1.0530 hc         1 A64       0.036867
     23 HAS3        -5.8400    -1.4980     0.7440 hc         1 A64       0.036867
     24 H1          -5.5110     1.5250     0.3790 hc         1 A64       0.051700
     25 HAO         -3.3520     2.3360     0.7840 ha         1 A64       0.117500
     26 HAL         -3.7840    -1.7380    -0.5970 ha         1 A64       0.117500
     27 HAN         -0.9040     2.0530     0.8570 ha         1 A64       0.124500
     28 HAM         -1.3390    -2.0210    -0.5400 ha         1 A64       0.124500
     29 HAH          0.4930    -2.2180     0.8880 ha         1 A64       0.213000
     30 HAA          2.9350     2.8070    -0.7810 ha         1 A64       0.132000
     31 HAB          5.4040     2.6290    -1.0330 ha         1 A64       0.119000
     32 HAC          6.5540     0.4810    -0.5040 ha         1 A64       0.122000
     33 HAD          5.2410    -1.4770     0.2760 ha         1 A64       0.138000
     34 HC1         -5.6670    -0.6510    -1.7700 hc         1 A64       0.036867
     35 HC2         -6.8950     0.5800    -1.4110 hc         1 A64       0.036867
     36 HC3         -5.3160     1.0660    -2.0590 hc         1 A64       0.036867
@<TRIPOS>BOND
     1     1    19 1   
     2     1    21 1   
     3     1    22 1   
     4     1    23 1   
     5     2     3 ar  
     6     2     5 ar  
     7     2    19 1   
     8     3     4 ar  
     9     3    25 1   
    10     4     7 ar  
    11     4    27 1   
    12     5     6 ar  
    13     5    26 1   
    14     6     7 ar  
    15     6    28 1   
    16     7     8 1   
    17     8     9 1   
    18     8    18 2   
    19     9    10 1   
    20    10    11 ar  
    21    10    15 ar  
    22    11    12 ar  
    23    11    30 1   
    24    12    13 ar  
    25    12    31 1   
    26    13    14 ar  
    27    13    32 1   
    28    14    15 ar  
    29    14    33 1   
    30    15    16 1   
    31    16    17 2   
    32    16    18 1   
    33    18    29 1   
    34    19    20 1   
    35    19    24 1   
    36    20    34 1   
    37    20    35 1   
    38    20    36 1   
@<TRIPOS>SUBSTRUCTURE
     1 A64         1 TEMP              0 ****  ****    0 ROOT
