@<TRIPOS>MOLECULE
A64
   36    38     1     0     0
SMALL
abcg2


@<TRIPOS>ATOM
      1 CAS         -5.8280    -0.0790     1.2340 c3         1 A64      -0.085100
      2 CAP         -3.6940     0.3440     0.0030 ca         1 A64      -0.048300
      3 CAO         -2.7920     1.3740     0.2540 ca         1 A64      -0.116000
      4 CAN         -1.4240     1.1540     0.2570 ca         1 A64      -0.070500
      5 CAL         -3.1760    -0.9280    -0.2490 ca         1 A64      -0.116000
      6 CAM         -1.8130    -1.1590    -0.2460 ca         1 A64      -0.070500
      7 CAK         -0.9150    -0.1210     0.0130 ca         1 A64      -0.079800
      8 CAI          0.5280    -0.3760     0.0390 cc         1 A64       0.213900
      9 OAJ          1.2510     0.7370    -0.1370 os         1 A64      -0.218200
     10 CAF          2.6030     0.6970    -0.1150 ca         1 A64       0.153100
     11 CAA          3.2680     1.9070    -0.2870 ca         1 A64      -0.142000
     12 CAB          4.6480     1.9100    -0.2760 ca         1 A64      -0.058000
     13 CAC          5.3650     0.7240    -0.0960 ca         1 A64      -0.147000
     14 CAD          4.6910    -0.4670     0.0720 ca         1 A64      -0.025000
     15 CAE          3.2930    -0.4980     0.0640 ca         1 A64      -0.226600
     16 CAG          2.5420    -1.7480     0.2460 c          1 A64       0.597900
     17 OAQ          3.0940    -2.8290     0.4050 o          1 A64      -0.544100
     18 CAH          1.1080    -1.5830     0.2340 cd         1 A64      -0.393200
     19 C1          -5.1820     0.5950     0.0230 c3         1 A64      -0.020400
     20 C           -5.8510     0.1510    -1.2770 c3         1 A64      -0.085100
     21 HAS1        -5.3880     0.2730     2.1670 hc         1 A64       0.036867
     22 HAS2        -6.8980     0.1350     1.2650 hc         1 A64       0.036867
     23 HAS3        -5.7090    -1.1630     1.1960 hc         1 A64       0.036867
     24 H1          -5.3280     1.6740     0.1240 hc         1 A64       0.051700
     25 HAO         -3.1650     2.3710     0.4570 ha         1 A64       0.117500
     26 HAL         -3.8430    -1.7560    -0.4560 ha         1 A64       0.117500
     27 HAN         -0.7630     1.9850     0.4650 ha         1 A64       0.124500
     28 HAM         -1.4520    -2.1540    -0.4690 ha         1 A64       0.124500
     29 HAH          0.4860    -2.4510     0.4010 ha         1 A64       0.213000
     30 HAA          2.7060     2.8210    -0.4280 ha         1 A64       0.132000
     31 HAB          5.1770     2.8450    -0.4100 ha         1 A64       0.119000
     32 HAC          6.4460     0.7430    -0.0890 ha         1 A64       0.122000
     33 HAD          5.2360    -1.3900     0.2150 ha         1 A64       0.138000
     34 HC1         -5.7750    -0.9280    -1.4210 hc         1 A64       0.036867
     35 HC2         -6.9120     0.4030    -1.2620 hc         1 A64       0.036867
     36 HC3         -5.4020     0.6360    -2.1440 hc         1 A64       0.036867
@<TRIPOS>BOND
     1     1    19 1   
     2     1    21 1   
     3     1    22 1   
     4     1    23 1   
     5     2     3 ar  
     6     2     5 ar  
     7     2    19 1   
     8     3     4 ar  
     9     3    25 1   
    10     4     7 ar  
    11     4    27 1   
    12     5     6 ar  
    13     5    26 1   
    14     6     7 ar  
    15     6    28 1   
    16     7     8 1   
    17     8     9 1   
    18     8    18 2   
    19     9    10 1   
    20    10    11 ar  
    21    10    15 ar  
    22    11    12 ar  
    23    11    30 1   
    24    12    13 ar  
    25    12    31 1   
    26    13    14 ar  
    27    13    32 1   
    28    14    15 ar  
    29    14    33 1   
    30    15    16 1   
    31    16    17 2   
    32    16    18 1   
    33    18    29 1   
    34    19    20 1   
    35    19    24 1   
    36    20    34 1   
    37    20    35 1   
    38    20    36 1   
@<TRIPOS>SUBSTRUCTURE
     1 A64         1 TEMP              0 ****  ****    0 ROOT
