@<TRIPOS>MOLECULE
A65
   20    20     1     0     0
SMALL
No Charge or Current Charge


@<TRIPOS>ATOM
      1 C4          -0.0620    -0.4330    -0.1950 cc         1 A65      -0.131300
      2 C5          -0.1960    -1.9160    -0.4260 c3         1 A65       0.235900
      3 C3           3.7660     0.6420     0.1690 c3         1 A65       0.001900
      4 C2           1.0120     0.3800    -0.4170 cd         1 A65      -0.240000
      5 C1          -1.1050     0.3870     0.3190 cc         1 A65       0.436300
      6 O            0.1480    -2.6430     0.7590 oh         1 A65      -0.647000
      7 S2           2.5840    -0.2420    -0.9360 ss         1 A65      -0.076000
      8 S1           0.6750     2.0390     0.0700 ss         1 A65       0.296100
      9 N           -0.9130     1.6840     0.5070 nd         1 A65      -0.525100
     10 S           -2.7120    -0.2210     0.7060 ss         1 A65      -0.314300
     11 C           -3.8070     1.0150    -0.1270 c3         1 A65       0.019900
     12 H1          -1.2240    -2.1490    -0.7340 h1         1 A65       0.036200
     13 H2           0.4610    -2.2100    -1.2560 h1         1 A65       0.036200
     14 H3           4.7870     0.2970    -0.0360 h1         1 A65       0.073033
     15 H4           3.7090     1.7220    -0.0110 h1         1 A65       0.073033
     16 H5           3.5170     0.4330     1.2170 h1         1 A65       0.073033
     17 H6           0.0620    -3.5970     0.5390 ho         1 A65       0.444000
     18 H8          -4.8570     0.7210    -0.0040 h1         1 A65       0.069367
     19 H9          -3.6600     2.0080     0.3170 h1         1 A65       0.069367
     20 H10         -3.5690     1.0600    -1.1980 h1         1 A65       0.069367
@<TRIPOS>BOND
     1     1     2 1   
     2     1     4 2   
     3     1     5 1   
     4     2     6 1   
     5     2    12 1   
     6     2    13 1   
     7     3     7 1   
     8     3    14 1   
     9     3    15 1   
    10     3    16 1   
    11     4     7 1   
    12     4     8 1   
    13     5     9 2   
    14     5    10 1   
    15     6    17 1   
    16     8     9 1   
    17    10    11 1   
    18    11    18 1   
    19    11    19 1   
    20    11    20 1   
@<TRIPOS>SUBSTRUCTURE
     1 A65         1 TEMP              0 ****  ****    0 ROOT
