@<TRIPOS>MOLECULE
A65
   20    20     1     0     0
SMALL
bcc


@<TRIPOS>ATOM
      1 C4           0.0170    -0.6340    -0.1300 cc         1 A65      -0.196600
      2 C5          -0.0860    -2.1000    -0.3840 c3         1 A65       0.212700
      3 C3           3.7660     1.0000    -0.0280 c3         1 A65      -0.046000
      4 C2           1.1630     0.1140    -0.0990 cd         1 A65       0.031800
      5 C1          -1.1070     0.2170     0.1010 cc         1 A65       0.501600
      6 O           -0.7360    -2.6970     0.7160 oh         1 A65      -0.584800
      7 S2           2.7770    -0.4790    -0.3380 ss         1 A65      -0.155000
      8 S1           0.7620     1.7620     0.1830 ss         1 A65       0.151200
      9 N           -0.8700     1.4860     0.2830 nd         1 A65      -0.525100
     10 S           -2.7340    -0.4290     0.1380 ss         1 A65      -0.266400
     11 C           -3.7090     1.0870     0.0530 c3         1 A65      -0.028000
     12 H1          -0.6470    -2.2600    -1.3130 h1         1 A65       0.036200
     13 H2           0.9120    -2.5240    -0.5480 h1         1 A65       0.036200
     14 H3           4.8040     0.6910    -0.1220 h1         1 A65       0.073033
     15 H4           3.5670     1.7740    -0.7670 h1         1 A65       0.073033
     16 H5           3.6050     1.3810     0.9790 h1         1 A65       0.073033
     17 H6          -1.0840    -3.5480     0.4330 ho         1 A65       0.405000
     18 H8          -4.7500     0.7720     0.0190 h1         1 A65       0.069367
     19 H9          -3.5560     1.7080     0.9320 h1         1 A65       0.069367
     20 H10         -3.4780     1.6560    -0.8440 h1         1 A65       0.069367
@<TRIPOS>BOND
     1     1     2 1   
     2     1     4 2   
     3     1     5 1   
     4     2     6 1   
     5     2    12 1   
     6     2    13 1   
     7     3     7 1   
     8     3    14 1   
     9     3    15 1   
    10     3    16 1   
    11     4     7 1   
    12     4     8 1   
    13     5     9 2   
    14     5    10 1   
    15     6    17 1   
    16     8     9 1   
    17    10    11 1   
    18    11    18 1   
    19    11    19 1   
    20    11    20 1   
@<TRIPOS>SUBSTRUCTURE
     1 A65         1 TEMP              0 ****  ****    0 ROOT
