@<TRIPOS>MOLECULE
A66
   49    50     1     0     0
SMALL
abcg2


@<TRIPOS>ATOM
      1 C8           2.9490     0.3340    -3.8970 c3         1 A66      -0.012400
      2 C7           2.4290    -0.4540    -2.6920 c          1 A66       0.597100
      3 O7           2.7820    -1.6150    -2.5400 o          1 A66      -0.632100
      4 C5           0.9990     1.4760    -2.1530 c3         1 A66      -0.047300
      5 C           -0.4080     1.2800    -2.7940 c          1 A66       0.707000
      6 O1          -0.5770     0.2150    -3.4140 o          1 A66      -0.712000
      7 OXT         -1.2100     2.2240    -2.6790 o          1 A66      -0.712000
      8 N4           1.6030     0.1840    -1.8500 n          1 A66      -0.350800
      9 C3           0.9740    -0.6070    -0.8010 c3         1 A66       0.103000
     10 C2           1.8420    -0.7810     0.4390 c3         1 A66       0.124800
     11 N1           1.1310    -1.5970     1.4110 n8         1 A66      -0.993200
     12 N9           3.9210    -0.4350    -4.6190 na         1 A66      -0.245300
     13 C1           3.6840    -1.3230    -5.6270 cc         1 A66       0.435700
     14 N7           4.7500    -1.9550    -6.0240 nd         1 A66      -0.581100
     15 C9           5.7470    -1.4700    -5.2180 ca         1 A66      -0.091600
     16 C6           7.1260    -1.7330    -5.1310 ca         1 A66       0.440900
     17 N6           7.7480    -2.5950    -5.9390 nv         1 A66      -1.075900
     18 N2           7.8330    -1.0740    -4.2060 nb         1 A66      -0.316000
     19 C10          7.2130    -0.2010    -3.4150 ca         1 A66       0.163900
     20 N3           5.9350     0.1340    -3.4030 nb         1 A66      -0.202000
     21 C4           5.2460    -0.5320    -4.3270 ca         1 A66       0.126500
     22 CB           1.0410     2.4250    -0.9620 c3         1 A66      -0.067400
     23 CG           2.4550     2.7990    -0.5370 c3         1 A66      -0.082400
     24 CD           2.4760     3.7840     0.6250 c3         1 A66      -0.077400
     25 CE           3.8840     4.1500     1.0660 c3         1 A66       0.145800
     26 NZ           3.8570     5.0900     2.1770 n8         1 A66      -1.000200
     27 H8'1         2.1250     0.5780    -4.5690 h1         1 A66       0.092200
     28 H8'2         3.4130     1.2730    -3.5930 h1         1 A66       0.092200
     29 H5'1         1.5980     1.9580    -2.9310 h1         1 A66       0.031700
     30 H3'1         0.7000    -1.5890    -1.1880 h1         1 A66       0.066700
     31 H3'2         0.0440    -0.1090    -0.5210 h1         1 A66       0.066700
     32 H2'1         2.1350     0.2050     0.8230 h1         1 A66       0.033700
     33 H2'2         2.7630    -1.2950     0.1610 h1         1 A66       0.033700
     34 H1'1         1.7400    -1.7920     2.1950 hn         1 A66       0.381000
     35 H1'2         0.3590    -1.0650     1.7930 hn         1 A66       0.381000
     36 H8           2.6940    -1.4480    -6.0390 h5         1 A66       0.074800
     37 HN61         7.2290    -3.1600    -6.5870 hn         1 A66       0.497000
     38 HN62         8.7190    -2.8120    -5.7940 hn         1 A66       0.497000
     39 H2           7.8450     0.2970    -2.6870 h5         1 A66       0.034100
     40 HB1          0.5010     3.3270    -1.2510 hc         1 A66       0.052200
     41 HB2          0.4910     2.0080    -0.1100 hc         1 A66       0.052200
     42 HG1          2.9860     3.2310    -1.3930 hc         1 A66       0.034200
     43 HG2          3.0150     1.9010    -0.2590 hc         1 A66       0.034200
     44 HD1          1.9350     3.3610     1.4770 hc         1 A66       0.041200
     45 HD2          1.9380     4.6940     0.3370 hc         1 A66       0.041200
     46 HE1          4.3990     3.2440     1.3990 h1         1 A66       0.025200
     47 HE2          4.4460     4.5170     0.1940 h1         1 A66       0.025200
     48 HZ1          3.4760     5.9730     1.8580 hn         1 A66       0.383500
     49 HZ2          4.8030     5.2940     2.4730 hn         1 A66       0.383500
@<TRIPOS>BOND
     1     1     2 1   
     2     1    12 1   
     3     1    27 1   
     4     1    28 1   
     5     2     3 2   
     6     2     8 1   
     7     4     5 1   
     8     4     8 1   
     9     4    22 1   
    10     4    29 1   
    11     5     6 1   
    12     5     7 1   
    13     8     9 1   
    14     9    10 1   
    15     9    30 1   
    16     9    31 1   
    17    10    11 1   
    18    10    32 1   
    19    10    33 1   
    20    11    34 1   
    21    11    35 1   
    22    12    13 1   
    23    12    21 1   
    24    13    14 2   
    25    13    36 1   
    26    14    15 1   
    27    15    16 ar  
    28    15    21 ar  
    29    16    17 1   
    30    16    18 ar  
    31    17    37 1   
    32    17    38 1   
    33    18    19 ar  
    34    19    20 ar  
    35    19    39 1   
    36    20    21 ar  
    37    22    23 1   
    38    22    40 1   
    39    22    41 1   
    40    23    24 1   
    41    23    42 1   
    42    23    43 1   
    43    24    25 1   
    44    24    44 1   
    45    24    45 1   
    46    25    26 1   
    47    25    46 1   
    48    25    47 1   
    49    26    48 1   
    50    26    49 1   
@<TRIPOS>SUBSTRUCTURE
     1 A66         1 TEMP              0 ****  ****    0 ROOT
