@<TRIPOS>MOLECULE
A66
   49    50     1     0     0
SMALL
No Charge or Current Charge


@<TRIPOS>ATOM
      1 C8           2.5130     0.1680    -4.0010 c3         1 A66      -0.012400
      2 C7           1.8040    -0.6570    -2.9000 c          1 A66       0.597100
      3 O7           1.9900    -1.8680    -2.8250 o          1 A66      -0.632100
      4 C5           0.5050     1.4240    -2.1190 c3         1 A66      -0.047300
      5 C           -1.0510     1.5580    -2.2240 c          1 A66       0.707000
      6 O1          -1.5750     1.2210    -3.2770 o          1 A66      -0.712000
      7 OXT         -1.6840     2.0030    -1.2760 o          1 A66      -0.712000
      8 N4           0.9710     0.0000    -1.9510 n          1 A66      -0.350800
      9 C3           0.3810    -0.7880    -0.8310 c3         1 A66       0.103000
     10 C2           1.3150    -0.8990     0.4010 c3         1 A66       0.124800
     11 N1           0.7160    -1.6800     1.5100 n8         1 A66      -0.993200
     12 N9           3.7870    -0.4190    -4.4760 na         1 A66      -0.245300
     13 C1           3.9860    -1.3900    -5.4600 cc         1 A66       0.435700
     14 N7           5.2960    -1.6980    -5.5680 nd         1 A66      -0.581100
     15 C9           5.9020    -0.8870    -4.5970 ca         1 A66      -0.091600
     16 C6           7.2620    -0.7800    -4.2350 ca         1 A66       0.440900
     17 N6           8.2420    -1.5070    -4.8350 nv         1 A66      -1.075900
     18 N2           7.6590     0.0500    -3.2560 nb         1 A66      -0.316000
     19 C10          6.6820     0.7710    -2.6530 ca         1 A66       0.163900
     20 N3           5.3580     0.7380    -2.9350 nb         1 A66      -0.202000
     21 C4           4.9950    -0.1080    -3.9200 ca         1 A66       0.126500
     22 CB           1.1260     2.3800    -1.0570 c3         1 A66      -0.067400
     23 CG           2.6730     2.4230    -1.0690 c3         1 A66      -0.082400
     24 CD           3.2680     3.3370     0.0240 c3         1 A66      -0.077400
     25 CE           4.8110     3.3670    -0.0030 c3         1 A66       0.145800
     26 NZ           5.3550     4.2480     1.0460 n8         1 A66      -1.000200
     27 H8'1         1.8160     0.2770    -4.8400 h1         1 A66       0.092200
     28 H8'2         2.7320     1.1660    -3.6120 h1         1 A66       0.092200
     29 H5'1         0.8470     1.7990    -3.0880 h1         1 A66       0.031700
     30 H3'1         0.1260    -1.7950    -1.1840 h1         1 A66       0.066700
     31 H3'2        -0.5570    -0.3230    -0.5080 h1         1 A66       0.066700
     32 H2'1         1.5620     0.1030     0.7740 h1         1 A66       0.033700
     33 H2'2         2.2520    -1.3890     0.0990 h1         1 A66       0.033700
     34 H1'1         1.3700    -1.6960     2.3020 hn         1 A66       0.381000
     35 H1'2        -0.0980    -1.1730     1.8800 hn         1 A66       0.381000
     36 H8           3.1720    -1.8130    -6.0370 h5         1 A66       0.074800
     37 HN61         7.9400    -2.2890    -5.4120 hn         1 A66       0.497000
     38 HN62         9.1280    -1.6130    -4.3490 hn         1 A66       0.497000
     39 H2           6.9940     1.4470    -1.8590 h5         1 A66       0.034100
     40 HB1          0.7500     3.3950    -1.2370 hc         1 A66       0.052200
     41 HB2          0.7770     2.0940    -0.0580 hc         1 A66       0.052200
     42 HG1          3.0150     2.7790    -2.0490 hc         1 A66       0.034200
     43 HG2          3.0720     1.4100    -0.9350 hc         1 A66       0.034200
     44 HD1          2.9300     2.9880     1.0070 hc         1 A66       0.041200
     45 HD2          2.8820     4.3550    -0.1100 hc         1 A66       0.041200
     46 HE1          5.2040     2.3520     0.1500 h1         1 A66       0.025200
     47 HE2          5.1570     3.7290    -0.9810 h1         1 A66       0.025200
     48 HZ1          5.0520     5.2110     0.8610 hn         1 A66       0.383500
     49 HZ2          6.3760     4.2910     0.9490 hn         1 A66       0.383500
@<TRIPOS>BOND
     1     1     2 1   
     2     1    12 1   
     3     1    27 1   
     4     1    28 1   
     5     2     3 2   
     6     2     8 1   
     7     4     5 1   
     8     4     8 1   
     9     4    22 1   
    10     4    29 1   
    11     5     6 1   
    12     5     7 1   
    13     8     9 1   
    14     9    10 1   
    15     9    30 1   
    16     9    31 1   
    17    10    11 1   
    18    10    32 1   
    19    10    33 1   
    20    11    34 1   
    21    11    35 1   
    22    12    13 1   
    23    12    21 1   
    24    13    14 2   
    25    13    36 1   
    26    14    15 1   
    27    15    16 ar  
    28    15    21 ar  
    29    16    17 1   
    30    16    18 ar  
    31    17    37 1   
    32    17    38 1   
    33    18    19 ar  
    34    19    20 ar  
    35    19    39 1   
    36    20    21 ar  
    37    22    23 1   
    38    22    40 1   
    39    22    41 1   
    40    23    24 1   
    41    23    42 1   
    42    23    43 1   
    43    24    25 1   
    44    24    44 1   
    45    24    45 1   
    46    25    26 1   
    47    25    46 1   
    48    25    47 1   
    49    26    48 1   
    50    26    49 1   
@<TRIPOS>SUBSTRUCTURE
     1 A66         1 TEMP              0 ****  ****    0 ROOT
