@<TRIPOS>MOLECULE
A66
   49    50     1     0     0
SMALL
bcc


@<TRIPOS>ATOM
      1 N8           2.9490     0.3340    -3.8970 c3         1 A66      -0.288000
      2 N7           2.4290    -0.4540    -2.6920 c          1 A66       0.459200
      3 N7           2.7820    -1.6150    -2.5400 o          1 A66      -0.393000
      4 N5           0.9990     1.4760    -2.1530 c3         1 A66      -0.222700
      5 N           -0.4080     1.2800    -2.7940 c          1 A66       0.455500
      6 N1          -0.5770     0.2150    -3.4140 o          1 A66      -0.552000
      7 NXT         -1.2100     2.2240    -2.6790 o          1 A66      -0.552000
      8 N4           1.6030     0.1840    -1.8500 n3         1 A66      -0.248300
      9 N3           0.9740    -0.6070    -0.8010 c3         1 A66      -0.043200
     10 N2           1.8420    -0.7810     0.4390 c3         1 A66      -0.112000
     11 N1           1.1310    -1.5970     1.4110 n8         1 A66      -0.315000
     12 N9           3.9210    -0.4350    -4.6190 na         1 A66      -0.014500
     13 N1           3.6840    -1.3230    -5.6270 cc         1 A66       0.153100
     14 N7           4.7500    -1.9550    -6.0240 n2         1 A66      -0.506500
     15 N9           5.7470    -1.4700    -5.2180 ca         1 A66      -0.051600
     16 N6           7.1260    -1.7330    -5.1310 ca         1 A66       0.536300
     17 N6           7.7480    -2.5950    -5.9390 nv         1 A66      -0.481500
     18 N2           7.8330    -1.0740    -4.2060 nb         1 A66      -0.655600
     19 N10          7.2130    -0.2010    -3.4150 ca         1 A66       0.366600
     20 N3           5.9350     0.1340    -3.4030 nb         1 A66      -0.541600
     21 N4           5.2460    -0.5320    -4.3270 ca         1 A66       0.232800
     22 NB           1.0410     2.4250    -0.9620 c3         1 A66      -0.146000
     23 NG           2.4550     2.7990    -0.5370 c3         1 A66      -0.161000
     24 ND           2.4760     3.7840     0.6250 c3         1 A66      -0.156000
     25 NE           3.8840     4.1500     1.0660 c3         1 A66      -0.091000
     26 NZ           3.8570     5.0900     2.1770 n8         1 A66      -0.322000
     27 N8'1         2.1250     0.5780    -4.5690 hn         1 A66       0.131500
     28 N8'2         3.4130     1.2730    -3.5930 hn         1 A66       0.131500
     29 N5'1         1.5980     1.9580    -2.9310 hn         1 A66       0.071000
     30 N3'1         0.7000    -1.5890    -1.1880 hn         1 A66       0.106000
     31 N3'2         0.0440    -0.1090    -0.5210 hn         1 A66       0.106000
     32 N2'1         2.1350     0.2050     0.8230 hn         1 A66       0.073000
     33 N2'2         2.7630    -1.2950     0.1610 hn         1 A66       0.073000
     34 N1'1         1.7400    -1.7920     2.1950 hn         1 A66       0.121000
     35 N1'2         0.3590    -1.0650     1.7930 hn         1 A66       0.121000
     36 N8           2.6940    -1.4480    -6.0390 hn         1 A66       0.204000
     37 NN61         7.2290    -3.1600    -6.5870 hn         1 A66       0.237000
     38 NN62         8.7190    -2.8120    -5.7940 hn         1 A66       0.237000
     39 N2           7.8450     0.2970    -2.6870 hn         1 A66       0.171000
     40 NB1          0.5010     3.3270    -1.2510 hn         1 A66       0.091500
     41 NB2          0.4910     2.0080    -0.1100 hn         1 A66       0.091500
     42 NG1          2.9860     3.2310    -1.3930 hn         1 A66       0.073500
     43 NG2          3.0150     1.9010    -0.2590 hn         1 A66       0.073500
     44 ND1          1.9350     3.3610     1.4770 hn         1 A66       0.080500
     45 ND2          1.9380     4.6940     0.3370 hn         1 A66       0.080500
     46 NE1          4.3990     3.2440     1.3990 hn         1 A66       0.064500
     47 NE2          4.4460     4.5170     0.1940 hn         1 A66       0.064500
     48 NZ1          3.4760     5.9730     1.8580 hn         1 A66       0.123500
     49 NZ2          4.8030     5.2940     2.4730 hn         1 A66       0.123500
@<TRIPOS>BOND
     1     1     2 1   
     2     1    12 1   
     3     1    27 1   
     4     1    28 1   
     5     2     3 2   
     6     2     8 1   
     7     4     5 1   
     8     4     8 1   
     9     4    22 1   
    10     4    29 1   
    11     5     6 1   
    12     5     7 1   
    13     8     9 1   
    14     9    10 1   
    15     9    30 1   
    16     9    31 1   
    17    10    11 1   
    18    10    32 1   
    19    10    33 1   
    20    11    34 1   
    21    11    35 1   
    22    12    13 1   
    23    12    21 1   
    24    13    14 2   
    25    13    36 1   
    26    14    15 1   
    27    15    16 ar  
    28    15    21 ar  
    29    16    17 1   
    30    16    18 ar  
    31    17    37 1   
    32    17    38 1   
    33    18    19 ar  
    34    19    20 ar  
    35    19    39 1   
    36    20    21 ar  
    37    22    23 1   
    38    22    40 1   
    39    22    41 1   
    40    23    24 1   
    41    23    42 1   
    42    23    43 1   
    43    24    25 1   
    44    24    44 1   
    45    24    45 1   
    46    25    26 1   
    47    25    46 1   
    48    25    47 1   
    49    26    48 1   
    50    26    49 1   
@<TRIPOS>SUBSTRUCTURE
     1 A66         1 TEMP              0 ****  ****    0 ROOT
