@<TRIPOS>MOLECULE
A68
   82    83     1     0     0
SMALL
No Charge or Current Charge


@<TRIPOS>ATOM
      1 C27         -6.3450     1.9210     0.7860 c          1 A68       0.607100
      2 O27         -6.9270     1.6920    -0.2640 o          1 A68      -0.617100
      3 C28         -7.0490     2.5130     1.9990 c3         1 A68      -0.178100
      4 N27         -5.0080     1.6570     0.9710 ns         1 A68      -0.485900
      5 C22         -4.0930     1.0880    -0.0480 c3         1 A68       0.026700
      6 C21         -3.1860    -0.0130     0.5860 c          1 A68       0.595100
      7 O22         -3.2380    -0.3170     1.7730 o          1 A68      -0.597100
      8 C23         -3.3100     2.1980    -0.8340 c3         1 A68      -0.061700
      9 C25         -2.5450     3.2230     0.0570 c3         1 A68      -0.073400
     10 C24         -4.2390     2.9430    -1.8230 c3         1 A68      -0.089100
     11 C26         -1.4170     2.6360     0.9310 c3         1 A68      -0.099100
     12 N11          2.6030    -1.7700     0.2370 n3         1 A68      -0.775500
     13 C12          3.1960    -1.4850    -1.0910 c3         1 A68       0.234800
     14 C13          4.7060    -1.8270    -1.2230 c3         1 A68      -0.082700
     15 C14          4.9740    -3.3410    -1.0560 c3         1 A68      -0.085100
     16 C15          5.2780    -1.3030    -2.5600 c3         1 A68      -0.085100
     17 C17          0.0990    -1.2250    -0.2460 c3         1 A68       0.128300
     18 O18          0.2190    -0.9060    -1.6530 oh         1 A68      -0.654000
     19 C19         -1.3550    -1.6860     0.0750 c3         1 A68       0.079700
     20 N20         -2.3080    -0.6260    -0.2830 ns         1 A68      -0.495900
     21 C32         -1.7780    -3.0300    -0.5790 c3         1 A68      -0.051100
     22 C33         -4.2380    -3.2220    -1.2140 ca         1 A68      -0.104000
     23 C34         -5.5690    -3.5540    -0.9080 ca         1 A68      -0.101000
     24 C35         -5.8910    -4.0760     0.3570 ca         1 A68      -0.106000
     25 C36         -4.8800    -4.2650     1.3140 ca         1 A68      -0.101000
     26 C37         -3.5490    -3.9320     1.0080 ca         1 A68      -0.104000
     27 C38         -3.2200    -3.4090    -0.2580 ca         1 A68      -0.088300
     28 S8           3.0700    -0.7900     1.5670 sy         1 A68       1.190600
     29 O9           4.1660    -1.4900     2.2440 o          1 A68      -0.543500
     30 O10          1.8330    -0.4430     2.2760 o          1 A68      -0.543500
     31 C5           3.6680     0.7400     0.8200 ca         1 A68      -0.336500
     32 C4           2.7540     1.6440     0.2440 ca         1 A68       0.025000
     33 C6           5.0420     1.0500     0.8350 ca         1 A68       0.025000
     34 C3           3.2190     2.8350    -0.3370 ca         1 A68      -0.198000
     35 C7           5.5010     2.2430     0.2520 ca         1 A68      -0.198000
     36 C2           4.5870     3.1390    -0.3410 ca         1 A68       0.197100
     37 O1           4.9810     4.3240    -0.9290 os         1 A68      -0.335100
     38 C1           6.3610     4.7280    -0.9910 c3         1 A68       0.145900
     39 H28         -6.5200     3.4210     2.3100 hc         1 A68       0.061367
     40 H28A        -8.1120     2.7070     1.8170 hc         1 A68       0.061367
     41 H28B        -6.9000     1.8500     2.8580 hc         1 A68       0.061367
     42 HN27        -4.6350     1.8420     1.8960 hn         1 A68       0.325500
     43 H22         -4.6990     0.5370    -0.7790 h1         1 A68       0.091700
     44 H23         -2.5610     1.7030    -1.4630 hc         1 A68       0.048700
     45 H25         -2.0930     3.9790    -0.5970 hc         1 A68       0.040700
     46 H25A        -3.2520     3.7630     0.6990 hc         1 A68       0.040700
     47 H24         -4.9860     3.5420    -1.2880 hc         1 A68       0.039700
     48 H24A        -3.6610     3.6180    -2.4650 hc         1 A68       0.039700
     49 H24B        -4.7670     2.2340    -2.4730 hc         1 A68       0.039700
     50 H26         -0.7490     2.0060     0.3330 hc         1 A68       0.037700
     51 H26A        -0.8190     3.4440     1.3690 hc         1 A68       0.037700
     52 H26B        -1.8210     2.0410     1.7570 hc         1 A68       0.037700
     53 H12          2.6800    -2.0840    -1.8540 h1         1 A68       0.043700
     54 H12A         3.0280    -0.4390    -1.3750 h1         1 A68       0.043700
     55 H13          5.2520    -1.3160    -0.4260 hc         1 A68       0.080700
     56 H14          6.0470    -3.5550    -1.1310 hc         1 A68       0.033867
     57 H14A         4.6300    -3.6930    -0.0760 hc         1 A68       0.033867
     58 H14B         4.4530    -3.9190    -1.8290 hc         1 A68       0.033867
     59 H15          5.1380    -0.2180    -2.6410 hc         1 A68       0.033867
     60 H15A         6.3530    -1.5100    -2.6300 hc         1 A68       0.033867
     61 H15B         4.7790    -1.7790    -3.4130 hc         1 A68       0.033867
     62 H16          1.1260    -3.1300    -0.4360 h1         1 A68       0.072700
     63 H16A         0.9170    -2.6110     1.2180 h1         1 A68       0.072700
     64 H17          0.2480    -0.3090     0.3370 h1         1 A68       0.086700
     65 HO18         0.1170    -1.7410    -2.1570 ho         1 A68       0.439000
     66 H19         -1.4020    -1.8350     1.1630 h1         1 A68       0.098700
     67 HN20        -2.3090    -0.3000    -1.2420 hn         1 A68       0.318500
     68 H32         -1.6430    -2.9680    -1.6660 hc         1 A68       0.047200
     69 H32A        -1.1110    -3.8310    -0.2360 hc         1 A68       0.047200
     70 H33         -4.0000    -2.8140    -2.1940 ha         1 A68       0.107000
     71 H34         -6.3510    -3.4050    -1.6490 ha         1 A68       0.118500
     72 H35         -6.9210    -4.3320     0.5940 ha         1 A68       0.113000
     73 H36         -5.1280    -4.6670     2.2940 ha         1 A68       0.118500
     74 H37         -2.7740    -4.0770     1.7570 ha         1 A68       0.107000
     75 H4           1.6890     1.4270     0.2360 ha         1 A68       0.133000
     76 H6           5.7600     0.3720     1.2940 ha         1 A68       0.133000
     77 H3           2.5120     3.5260    -0.7870 ha         1 A68       0.127000
     78 H7           6.5660     2.4530     0.2710 ha         1 A68       0.127000
     79 H1           6.7810     4.8350     0.0180 h1         1 A68       0.046367
     80 H1A          6.9580     3.9940    -1.5460 h1         1 A68       0.046367
     81 H1B          6.4510     5.6950    -1.5000 h1         1 A68       0.046367
     82 C16          1.1910    -2.2490     0.2180 c3         1 A68       0.194800
@<TRIPOS>BOND
     1     1     2 2   
     2     1     3 1   
     3     1     4 1   
     4     3    39 1   
     5     3    40 1   
     6     3    41 1   
     7     4     5 1   
     8     4    42 1   
     9     5     6 1   
    10     5     8 1   
    11     5    43 1   
    12     6     7 2   
    13     6    20 1   
    14     8     9 1   
    15     8    10 1   
    16     8    44 1   
    17     9    11 1   
    18     9    45 1   
    19     9    46 1   
    20    10    47 1   
    21    10    48 1   
    22    10    49 1   
    23    11    50 1   
    24    11    51 1   
    25    11    52 1   
    26    12    13 1   
    27    12    28 1   
    28    12    82 1   
    29    13    14 1   
    30    13    53 1   
    31    13    54 1   
    32    14    15 1   
    33    14    16 1   
    34    14    55 1   
    35    15    56 1   
    36    15    57 1   
    37    15    58 1   
    38    16    59 1   
    39    16    60 1   
    40    16    61 1   
    41    17    18 1   
    42    17    19 1   
    43    17    64 1   
    44    17    82 1   
    45    18    65 1   
    46    19    20 1   
    47    19    21 1   
    48    19    66 1   
    49    20    67 1   
    50    21    27 1   
    51    21    68 1   
    52    21    69 1   
    53    22    23 ar  
    54    22    27 ar  
    55    22    70 1   
    56    23    24 ar  
    57    23    71 1   
    58    24    25 ar  
    59    24    72 1   
    60    25    26 ar  
    61    25    73 1   
    62    26    27 ar  
    63    26    74 1   
    64    28    29 2   
    65    28    30 2   
    66    28    31 1   
    67    31    32 ar  
    68    31    33 ar  
    69    32    34 ar  
    70    32    75 1   
    71    33    35 ar  
    72    33    76 1   
    73    34    36 ar  
    74    34    77 1   
    75    35    36 ar  
    76    35    78 1   
    77    36    37 1   
    78    37    38 1   
    79    38    79 1   
    80    38    80 1   
    81    38    81 1   
    82    62    82 1   
    83    63    82 1   
@<TRIPOS>SUBSTRUCTURE
     1 A68         1 TEMP              0 ****  ****    0 ROOT
