@<TRIPOS>MOLECULE
A68
   82    83     1     0     0
SMALL
bcc


@<TRIPOS>ATOM
      1 C27         -6.0290     1.2840     0.2690 c          1 A68       0.674100
      2 O27         -6.3770     0.9020    -0.8390 o          1 A68      -0.617100
      3 C28         -7.0260     1.5140     1.3770 c3         1 A68      -0.178100
      4 N27         -4.7450     1.5260     0.6010 ns         1 A68      -0.552900
      5 C22         -3.6260     1.2220    -0.2470 c3         1 A68       0.026700
      6 C21         -2.7130     0.2120     0.4570 c          1 A68       0.662100
      7 O22         -2.9120    -0.1570     1.6010 o          1 A68      -0.597100
      8 C23         -2.9170     2.4930    -0.7670 c3         1 A68      -0.061700
      9 C25         -2.4750     3.4690     0.3270 c3         1 A68      -0.073400
     10 C24         -3.8200     3.2120    -1.7650 c3         1 A68      -0.089100
     11 C26         -1.4510     2.9390     1.3230 c3         1 A68      -0.099100
     12 N11          2.9740    -1.7180     0.1900 n3         1 A68      -0.775500
     13 C12          3.7410    -1.9430    -1.0360 c3         1 A68       0.234800
     14 C13          4.6700    -3.1550    -0.9970 c3         1 A68      -0.082700
     15 C14          3.9160    -4.4380    -0.6690 c3         1 A68      -0.085100
     16 C15          5.3830    -3.2680    -2.3400 c3         1 A68      -0.085100
     17 C17          0.6070    -0.9840    -0.2300 c3         1 A68       0.105100
     18 O18          0.8140    -0.6090    -1.5720 oh         1 A68      -0.591800
     19 C19         -0.8540    -1.3530     0.0570 c3         1 A68       0.079700
     20 N20         -1.7000    -0.2400    -0.3050 ns         1 A68      -0.562900
     21 C32         -1.3240    -2.6390    -0.6510 c3         1 A68      -0.051100
     22 C33         -3.7710    -2.3950    -1.1820 ca         1 A68      -0.122000
     23 C34         -5.1120    -2.5570    -0.8610 ca         1 A68      -0.119000
     24 C35         -5.4730    -3.2640     0.2780 ca         1 A68      -0.124000
     25 C36         -4.4850    -3.8080     1.0890 ca         1 A68      -0.119000
     26 C37         -3.1460    -3.6290     0.7720 ca         1 A68      -0.122000
     27 C38         -2.7720    -2.9160    -0.3630 ca         1 A68      -0.088300
     28 S8           3.6260    -0.7770     1.3650 sy         1 A68       1.332200
     29 O9           5.0420    -1.1010     1.4470 o          1 A68      -0.614300
     30 O10          2.7830    -0.9230     2.5420 o          1 A68      -0.614300
     31 C5           3.5300     0.9120     0.8470 ca         1 A68      -0.336500
     32 C4           2.4840     1.7200     1.2860 ca         1 A68       0.007000
     33 C6           4.5090     1.4370     0.0150 ca         1 A68       0.007000
     34 C3           2.4090     3.0330     0.8730 ca         1 A68      -0.216000
     35 C7           4.4340     2.7550    -0.4090 ca         1 A68      -0.216000
     36 C2           3.3790     3.5620     0.0150 ca         1 A68       0.197100
     37 O1           3.2240     4.8430    -0.3340 os         1 A68      -0.311900
     38 C1           4.1860     5.4400    -1.1870 c3         1 A68       0.122700
     39 H28         -6.6090     2.0270     2.2420 hc         1 A68       0.061367
     40 H28A        -7.8680     2.0930     1.0020 hc         1 A68       0.061367
     41 H28B        -7.4150     0.5510     1.7090 hc         1 A68       0.061367
     42 HN27        -4.5450     1.7580     1.5600 hn         1 A68       0.325500
     43 H22         -4.0240     0.7000    -1.1230 h1         1 A68       0.091700
     44 H23         -2.0180     2.1730    -1.3060 hc         1 A68       0.048700
     45 H25         -2.0500     4.3400    -0.1790 hc         1 A68       0.040700
     46 H25A        -3.3570     3.8420     0.8570 hc         1 A68       0.040700
     47 H24         -4.7450     3.5460    -1.2920 hc         1 A68       0.039700
     48 H24A        -3.3180     4.0930    -2.1660 hc         1 A68       0.039700
     49 H24B        -4.0850     2.5680    -2.6050 hc         1 A68       0.039700
     50 H26         -0.6210     2.4500     0.8110 hc         1 A68       0.037700
     51 H26A        -1.0370     3.7570     1.9150 hc         1 A68       0.037700
     52 H26B        -1.8780     2.2220     2.0220 hc         1 A68       0.037700
     53 H12          3.0200    -2.0720    -1.8450 h1         1 A68       0.043700
     54 H12A         4.3060    -1.0460    -1.3030 h1         1 A68       0.043700
     55 H13          5.4190    -2.9880    -0.2210 hc         1 A68       0.080700
     56 H14          4.5940    -5.2920    -0.6590 hc         1 A68       0.033867
     57 H14A         3.4400    -4.3910     0.3120 hc         1 A68       0.033867
     58 H14B         3.1400    -4.6420    -1.4120 hc         1 A68       0.033867
     59 H15          5.9580    -2.3690    -2.5690 hc         1 A68       0.033867
     60 H15A         6.0730    -4.1120    -2.3440 hc         1 A68       0.033867
     61 H15B         4.6680    -3.4220    -3.1530 hc         1 A68       0.033867
     62 H16          1.4630    -2.9650    -0.3980 h1         1 A68       0.072700
     63 H16A         1.2930    -2.4000     1.2390 h1         1 A68       0.072700
     64 H17          0.8070    -0.0790     0.3490 h1         1 A68       0.086700
     65 HO18         0.7460    -1.3860    -2.1380 ho         1 A68       0.400000
     66 H19         -0.9490    -1.4980     1.1340 h1         1 A68       0.098700
     67 HN20        -1.6430     0.0680    -1.2640 hn         1 A68       0.318500
     68 H32         -1.1790    -2.5410    -1.7310 hc         1 A68       0.047200
     69 H32A        -0.7100    -3.4790    -0.3200 hc         1 A68       0.047200
     70 H33         -3.4980    -1.8510    -2.0790 ha         1 A68       0.125000
     71 H34         -5.8730    -2.1270    -1.4980 ha         1 A68       0.136500
     72 H35         -6.5170    -3.3940     0.5310 ha         1 A68       0.131000
     73 H36         -4.7580    -4.3670     1.9750 ha         1 A68       0.136500
     74 H37         -2.3810    -4.0450     1.4180 ha         1 A68       0.125000
     75 H4           1.7340     1.3390     1.9660 ha         1 A68       0.151000
     76 H6           5.3500     0.8380    -0.3060 ha         1 A68       0.151000
     77 H3           1.6050     3.6670     1.2240 ha         1 A68       0.145000
     78 H7           5.2130     3.1340    -1.0570 ha         1 A68       0.145000
     79 H1           5.1810     5.4390    -0.7360 h1         1 A68       0.046367
     80 H1A          4.2330     4.9400    -2.1570 h1         1 A68       0.046367
     81 H1B          3.8670     6.4680    -1.3350 h1         1 A68       0.046367
     82 C16          1.5630    -2.0790     0.2330 c3         1 A68       0.194800
@<TRIPOS>BOND
     1     1     2 2   
     2     1     3 1   
     3     1     4 1   
     4     3    39 1   
     5     3    40 1   
     6     3    41 1   
     7     4     5 1   
     8     4    42 1   
     9     5     6 1   
    10     5     8 1   
    11     5    43 1   
    12     6     7 2   
    13     6    20 1   
    14     8     9 1   
    15     8    10 1   
    16     8    44 1   
    17     9    11 1   
    18     9    45 1   
    19     9    46 1   
    20    10    47 1   
    21    10    48 1   
    22    10    49 1   
    23    11    50 1   
    24    11    51 1   
    25    11    52 1   
    26    12    13 1   
    27    12    28 1   
    28    12    82 1   
    29    13    14 1   
    30    13    53 1   
    31    13    54 1   
    32    14    15 1   
    33    14    16 1   
    34    14    55 1   
    35    15    56 1   
    36    15    57 1   
    37    15    58 1   
    38    16    59 1   
    39    16    60 1   
    40    16    61 1   
    41    17    18 1   
    42    17    19 1   
    43    17    64 1   
    44    17    82 1   
    45    18    65 1   
    46    19    20 1   
    47    19    21 1   
    48    19    66 1   
    49    20    67 1   
    50    21    27 1   
    51    21    68 1   
    52    21    69 1   
    53    22    23 ar  
    54    22    27 ar  
    55    22    70 1   
    56    23    24 ar  
    57    23    71 1   
    58    24    25 ar  
    59    24    72 1   
    60    25    26 ar  
    61    25    73 1   
    62    26    27 ar  
    63    26    74 1   
    64    28    29 2   
    65    28    30 2   
    66    28    31 1   
    67    31    32 ar  
    68    31    33 ar  
    69    32    34 ar  
    70    32    75 1   
    71    33    35 ar  
    72    33    76 1   
    73    34    36 ar  
    74    34    77 1   
    75    35    36 ar  
    76    35    78 1   
    77    36    37 1   
    78    37    38 1   
    79    38    79 1   
    80    38    80 1   
    81    38    81 1   
    82    62    82 1   
    83    63    82 1   
@<TRIPOS>SUBSTRUCTURE
     1 A68         1 TEMP              0 ****  ****    0 ROOT
