@<TRIPOS>MOLECULE
A69
   76    80     1     0     0
SMALL
No Charge or Current Charge


@<TRIPOS>ATOM
      1 C21          2.8550     0.4280     0.4760 c          1 A69       0.617700
      2 O22          2.2960     0.3630     1.5630 o          1 A69      -0.600100
      3 C22          4.2240    -0.1840     0.2340 ca         1 A69      -0.103600
      4 C27          4.9490    -0.7250     1.3230 ca         1 A69      -0.160000
      5 C26          6.2060    -1.3210     1.1260 ca         1 A69       0.133100
      6 C25          6.7570    -1.3880    -0.1610 ca         1 A69      -0.124000
      7 C24          6.0540    -0.8560    -1.2530 ca         1 A69      -0.082000
      8 C23          4.7970    -0.2570    -1.0600 ca         1 A69      -0.124000
      9 O27          6.8940    -1.8410     2.1810 oh         1 A69      -0.532100
     10 N11         -2.4730    -0.5460    -1.1650 n3         1 A69      -0.792500
     11 C12         -3.7780     0.0190    -1.5920 c3         1 A69       0.236800
     12 C13         -4.6780     0.5620    -0.4550 c3         1 A69      -0.095400
     13 C14         -5.9630     1.2390    -0.9800 c3         1 A69      -0.027100
     14 C16         -1.5530     0.4650    -0.5570 c3         1 A69       0.190800
     15 C17         -0.0780     0.3180    -1.0150 c3         1 A69       0.122300
     16 O18         -0.0780     0.0880    -2.4340 oh         1 A69      -0.651000
     17 C19          0.8530     1.5010    -0.6170 c3         1 A69       0.079700
     18 N20          2.2490     1.0410    -0.6010 ns         1 A69      -0.497900
     19 C32          0.6900     2.7890    -1.4680 c3         1 A69      -0.045100
     20 C33          2.7370     4.2910    -1.6880 ca         1 A69      -0.099500
     21 C34          3.5550     5.3370    -1.2260 ca         1 A69      -0.104500
     22 C35          3.2170     6.0270    -0.0500 ca         1 A69      -0.104000
     23 C36          2.0610     5.6710     0.6640 ca         1 A69      -0.104500
     24 C37          1.2430     4.6250     0.2020 ca         1 A69      -0.099500
     25 C38          1.5760     3.9290    -0.9760 ca         1 A69      -0.084300
     26 C40         -6.8330     1.7660     0.1520 ca         1 A69      -0.081300
     27 C41         -6.6450     3.0730     0.6430 ca         1 A69      -0.105500
     28 C42         -7.4450     3.5580     1.6930 ca         1 A69      -0.109000
     29 C43         -8.4370     2.7390     2.2580 ca         1 A69      -0.110000
     30 C44         -8.6280     1.4340     1.7740 ca         1 A69      -0.109000
     31 C45         -7.8280     0.9480     0.7240 ca         1 A69      -0.105500
     32 C1           3.5420    -3.8630     0.5210 cc         1 A69       0.381100
     33 N1           3.0730    -3.9830    -0.7310 nd         1 A69      -0.528100
     34 S1           2.4330    -3.3090     1.7950 ss         1 A69       0.088800
     35 C2           1.7390    -3.5930    -0.7070 ca         1 A69       0.130400
     36 C3           1.2320    -3.2100     0.5180 ca         1 A69      -0.219000
     37 C4          -0.0930    -2.7720     0.6740 ca         1 A69       0.036000
     38 C5          -0.9180    -2.7110    -0.4710 ca         1 A69      -0.287500
     39 C6          -0.4140    -3.1250    -1.7270 ca         1 A69      -0.032000
     40 C7           0.9180    -3.5670    -1.8440 ca         1 A69      -0.070000
     41 S8          -2.5860    -2.0510    -0.3500 sy         1 A69       1.191600
     42 O9          -3.4380    -2.8930    -1.1970 o          1 A69      -0.538500
     43 O10         -2.9240    -1.7700     1.0490 o          1 A69      -0.538500
     44 H27          4.5290    -0.6810     2.3250 ha         1 A69       0.132000
     45 H25          7.7280    -1.8520    -0.3120 ha         1 A69       0.132000
     46 H24          6.4820    -0.9100    -2.2520 ha         1 A69       0.118000
     47 H23          4.2770     0.1330    -1.9310 ha         1 A69       0.114000
     48 HO27         6.3940    -1.6580     3.0050 ho         1 A69       0.466000
     49 H12         -3.5900     0.8460    -2.2900 h1         1 A69       0.058700
     50 H12A        -4.3480    -0.7260    -2.1620 h1         1 A69       0.058700
     51 H13         -4.9660    -0.2560     0.2130 hc         1 A69       0.054200
     52 H13A        -4.1190     1.2880     0.1470 hc         1 A69       0.054200
     53 H14         -5.6890     2.0590    -1.6560 hc         1 A69       0.047200
     54 H14A        -6.5280     0.5190    -1.5860 hc         1 A69       0.047200
     55 H16         -1.8720     1.4740    -0.8500 h1         1 A69       0.068200
     56 H16A        -1.6000     0.4400     0.5410 h1         1 A69       0.068200
     57 H17          0.3300    -0.5600    -0.5060 h1         1 A69       0.091700
     58 HO18        -0.9570    -0.3270    -2.5970 ho         1 A69       0.440000
     59 H19          0.5900     1.7760     0.4130 h1         1 A69       0.093700
     60 HN20         2.7680     1.0610    -1.4670 hn         1 A69       0.325500
     61 H32          0.9160     2.5650    -2.5170 hc         1 A69       0.048200
     62 H32A        -0.3580     3.1090    -1.4460 hc         1 A69       0.048200
     63 H33          3.0080     3.7610    -2.5990 ha         1 A69       0.107000
     64 H34          4.4500     5.6110    -1.7800 ha         1 A69       0.113000
     65 H35          3.8510     6.8360     0.3070 ha         1 A69       0.113000
     66 H36          1.7980     6.2050     1.5750 ha         1 A69       0.113000
     67 H37          0.3500     4.3560     0.7620 ha         1 A69       0.107000
     68 H41         -5.8780     3.7120     0.2130 ha         1 A69       0.110500
     69 H42         -7.2960     4.5680     2.0680 ha         1 A69       0.112000
     70 H43         -9.0560     3.1140     3.0700 ha         1 A69       0.112000
     71 H44         -9.3940     0.7980     2.2110 ha         1 A69       0.112000
     72 H45         -7.9800    -0.0640     0.3570 ha         1 A69       0.110500
     73 H4          -0.4550    -2.4570     1.6520 ha         1 A69       0.153000
     74 H6          -1.0430    -3.0810    -2.6150 ha         1 A69       0.133000
     75 H7           1.3130    -3.8690    -2.8100 ha         1 A69       0.138000
     76 H1           4.5620    -4.0920     0.8020 h5         1 A69       0.056800
@<TRIPOS>BOND
     1     1     2 2   
     2     1     3 1   
     3     1    18 1   
     4     3     4 ar  
     5     3     8 ar  
     6     4     5 ar  
     7     4    44 1   
     8     5     6 ar  
     9     5     9 1   
    10     6     7 ar  
    11     6    45 1   
    12     7     8 ar  
    13     7    46 1   
    14     8    47 1   
    15     9    48 1   
    16    10    11 1   
    17    10    14 1   
    18    10    41 1   
    19    11    12 1   
    20    11    49 1   
    21    11    50 1   
    22    12    13 1   
    23    12    51 1   
    24    12    52 1   
    25    13    26 1   
    26    13    53 1   
    27    13    54 1   
    28    14    15 1   
    29    14    55 1   
    30    14    56 1   
    31    15    16 1   
    32    15    17 1   
    33    15    57 1   
    34    16    58 1   
    35    17    18 1   
    36    17    19 1   
    37    17    59 1   
    38    18    60 1   
    39    19    25 1   
    40    19    61 1   
    41    19    62 1   
    42    20    21 ar  
    43    20    25 ar  
    44    20    63 1   
    45    21    22 ar  
    46    21    64 1   
    47    22    23 ar  
    48    22    65 1   
    49    23    24 ar  
    50    23    66 1   
    51    24    25 ar  
    52    24    67 1   
    53    26    27 ar  
    54    26    31 ar  
    55    27    28 ar  
    56    27    68 1   
    57    28    29 ar  
    58    28    69 1   
    59    29    30 ar  
    60    29    70 1   
    61    30    31 ar  
    62    30    71 1   
    63    31    72 1   
    64    32    33 2   
    65    32    34 1   
    66    32    76 1   
    67    33    35 1   
    68    34    36 1   
    69    35    36 ar  
    70    35    40 ar  
    71    36    37 ar  
    72    37    38 ar  
    73    37    73 1   
    74    38    39 ar  
    75    38    41 1   
    76    39    40 ar  
    77    39    74 1   
    78    40    75 1   
    79    41    42 2   
    80    41    43 2   
@<TRIPOS>SUBSTRUCTURE
     1 A69         1 TEMP              0 ****  ****    0 ROOT
