@<TRIPOS>MOLECULE
A69
   76    80     1     0     0
SMALL
bcc


@<TRIPOS>ATOM
      1 C21          3.2240     0.5870    -0.0330 c          1 A69       0.684700
      2 O22          3.3200     0.4810     1.1800 o          1 A69      -0.600100
      3 C22          4.3660     0.2250    -0.9310 ca         1 A69      -0.103600
      4 C27          5.2930    -0.6950    -0.4490 ca         1 A69      -0.178000
      5 C26          6.3760    -1.0750    -1.2310 ca         1 A69       0.133100
      6 C25          6.5460    -0.5150    -2.4970 ca         1 A69      -0.142000
      7 C24          5.6330     0.4150    -2.9610 ca         1 A69      -0.100000
      8 C23          4.5400     0.7910    -2.1900 ca         1 A69      -0.142000
      9 O27          7.2890    -1.9750    -0.8180 oh         1 A69      -0.493100
     10 N11         -2.4950    -0.2710     0.3090 n3         1 A69      -0.792500
     11 C12         -3.4800    -0.2730    -0.7710 c3         1 A69       0.236800
     12 C13         -4.7560     0.4640    -0.3960 c3         1 A69      -0.095400
     13 C14         -5.7290     0.5370    -1.5730 c3         1 A69      -0.027100
     14 C16         -1.5230     0.8090     0.3930 c3         1 A69       0.190800
     15 C17         -0.2740     0.5850    -0.4650 c3         1 A69       0.099100
     16 O18         -0.5090     0.7550    -1.8440 oh         1 A69      -0.588800
     17 C19          0.9100     1.4210     0.0360 c3         1 A69       0.079700
     18 N20          2.1060     1.0040    -0.6560 ns         1 A69      -0.564900
     19 C32          0.7030     2.9360    -0.1010 c3         1 A69      -0.045100
     20 C33          2.9150     4.1240    -0.3060 ca         1 A69      -0.117500
     21 C34          3.9990     4.7900     0.2520 ca         1 A69      -0.122500
     22 C35          4.0350     5.0430     1.6160 ca         1 A69      -0.122000
     23 C36          2.9800     4.6260     2.4180 ca         1 A69      -0.122500
     24 C37          1.9000     3.9590     1.8570 ca         1 A69      -0.117500
     25 C38          1.8530     3.7010     0.4890 ca         1 A69      -0.084300
     26 C40         -6.9950     1.2610    -1.2070 ca         1 A69      -0.081300
     27 C41         -7.0630     2.6510    -1.2760 ca         1 A69      -0.123500
     28 C42         -8.2140     3.3280    -0.8960 ca         1 A69      -0.127000
     29 C43         -9.3190     2.6220    -0.4390 ca         1 A69      -0.128000
     30 C44         -9.2640     1.2360    -0.3660 ca         1 A69      -0.127000
     31 C45         -8.1100     0.5640    -0.7470 ca         1 A69      -0.123500
     32 C1           3.4210    -3.9220     0.6820 cc         1 A69       0.381100
     33 N1           2.5330    -4.2480    -0.1900 nd         1 A69      -0.528100
     34 S1           2.9040    -2.8940     1.9760 ss         1 A69      -0.038100
     35 C2           1.3240    -3.6810     0.1220 ca         1 A69       0.130400
     36 C3           1.3230    -2.8920     1.2840 ca         1 A69      -0.092100
     37 C4           0.1770    -2.2430     1.7290 ca         1 A69       0.018000
     38 C5          -0.9680    -2.4060     0.9740 ca         1 A69      -0.287500
     39 C6          -0.9980    -3.2000    -0.1820 ca         1 A69      -0.050000
     40 C7           0.1440    -3.8370    -0.6100 ca         1 A69      -0.088000
     41 S8          -2.4270    -1.4890     1.4010 sy         1 A69       1.333200
     42 O9          -3.5850    -2.3380     1.1690 o          1 A69      -0.609300
     43 O10         -2.2010    -0.9310     2.7250 o          1 A69      -0.609300
     44 H27          5.1560    -1.1170     0.5400 ha         1 A69       0.150000
     45 H25          7.3920    -0.8080    -3.1060 ha         1 A69       0.150000
     46 H24          5.7780     0.8570    -3.9380 ha         1 A69       0.136000
     47 H23          3.8590     1.5370    -2.5760 ha         1 A69       0.132000
     48 HO27         7.0980    -2.2660     0.0810 ho         1 A69       0.427000
     49 H12         -3.0080     0.1940    -1.6360 h1         1 A69       0.058700
     50 H12A        -3.7070    -1.2960    -1.0720 h1         1 A69       0.058700
     51 H13         -5.2320    -0.0390     0.4500 hc         1 A69       0.054200
     52 H13A        -4.5090     1.4780    -0.0660 hc         1 A69       0.054200
     53 H14         -5.2420     1.0410    -2.4120 hc         1 A69       0.047200
     54 H14A        -5.9670    -0.4750    -1.9120 hc         1 A69       0.047200
     55 H16         -2.0310     1.7340     0.1080 h1         1 A69       0.068200
     56 H16A        -1.2320     0.9520     1.4350 h1         1 A69       0.068200
     57 H17          0.0310    -0.4570    -0.3590 h1         1 A69       0.091700
     58 HO18        -0.8500     1.6420    -2.0060 ho         1 A69       0.401000
     59 H19          1.0540     1.1830     1.0920 h1         1 A69       0.093700
     60 HN20         2.0650     0.9880    -1.6630 hn         1 A69       0.325500
     61 H32          0.5870     3.2040    -1.1550 hc         1 A69       0.048200
     62 H32A        -0.2260     3.2200     0.4010 hc         1 A69       0.048200
     63 H33          2.8930     3.9350    -1.3730 ha         1 A69       0.125000
     64 H34          4.8150     5.1150    -0.3820 ha         1 A69       0.131000
     65 H35          4.8780     5.5630     2.0520 ha         1 A69       0.131000
     66 H36          2.9970     4.8220     3.4830 ha         1 A69       0.131000
     67 H37          1.0820     3.6350     2.4900 ha         1 A69       0.125000
     68 H41         -6.2050     3.2090    -1.6350 ha         1 A69       0.128500
     69 H42         -8.2490     4.4090    -0.9600 ha         1 A69       0.130000
     70 H43        -10.2180     3.1470    -0.1420 ha         1 A69       0.130000
     71 H44        -10.1210     0.6770    -0.0140 ha         1 A69       0.130000
     72 H45         -8.0760    -0.5180    -0.6890 ha         1 A69       0.128500
     73 H4           0.1900    -1.6290     2.6190 ha         1 A69       0.171000
     74 H6          -1.9150    -3.3160    -0.7440 ha         1 A69       0.151000
     75 H7           0.1360    -4.4520    -1.5000 ha         1 A69       0.156000
     76 H1           4.4490    -4.2560     0.6400 h5         1 A69       0.056800
@<TRIPOS>BOND
     1     1     2 2   
     2     1     3 1   
     3     1    18 1   
     4     3     4 ar  
     5     3     8 ar  
     6     4     5 ar  
     7     4    44 1   
     8     5     6 ar  
     9     5     9 1   
    10     6     7 ar  
    11     6    45 1   
    12     7     8 ar  
    13     7    46 1   
    14     8    47 1   
    15     9    48 1   
    16    10    11 1   
    17    10    14 1   
    18    10    41 1   
    19    11    12 1   
    20    11    49 1   
    21    11    50 1   
    22    12    13 1   
    23    12    51 1   
    24    12    52 1   
    25    13    26 1   
    26    13    53 1   
    27    13    54 1   
    28    14    15 1   
    29    14    55 1   
    30    14    56 1   
    31    15    16 1   
    32    15    17 1   
    33    15    57 1   
    34    16    58 1   
    35    17    18 1   
    36    17    19 1   
    37    17    59 1   
    38    18    60 1   
    39    19    25 1   
    40    19    61 1   
    41    19    62 1   
    42    20    21 ar  
    43    20    25 ar  
    44    20    63 1   
    45    21    22 ar  
    46    21    64 1   
    47    22    23 ar  
    48    22    65 1   
    49    23    24 ar  
    50    23    66 1   
    51    24    25 ar  
    52    24    67 1   
    53    26    27 ar  
    54    26    31 ar  
    55    27    28 ar  
    56    27    68 1   
    57    28    29 ar  
    58    28    69 1   
    59    29    30 ar  
    60    29    70 1   
    61    30    31 ar  
    62    30    71 1   
    63    31    72 1   
    64    32    33 2   
    65    32    34 1   
    66    32    76 1   
    67    33    35 1   
    68    34    36 1   
    69    35    36 ar  
    70    35    40 ar  
    71    36    37 ar  
    72    37    38 ar  
    73    37    73 1   
    74    38    39 ar  
    75    38    41 1   
    76    39    40 ar  
    77    39    74 1   
    78    40    75 1   
    79    41    42 2   
    80    41    43 2   
@<TRIPOS>SUBSTRUCTURE
     1 A69         1 TEMP              0 ****  ****    0 ROOT
