@<TRIPOS>MOLECULE
A6B
   79    83     1     0     0
SMALL
No Charge or Current Charge


@<TRIPOS>ATOM
      1 C1          -8.9900     0.1390     0.1150 c6         1 A6B      -0.123000
      2 C2         -10.1470     1.1910     0.0690 c6         1 A6B      -0.058733
      3 C3         -11.5330     0.4900     0.1760 c6         1 A6B      -0.060700
      4 C4         -11.6300    -0.2490     1.5390 c6         1 A6B      -0.068733
      5 C5         -10.5040    -1.3150     1.6290 c6         1 A6B      -0.060700
      6 C6          -9.1190    -0.6160     1.4950 c6         1 A6B      -0.058733
      7 C7          -9.1760    -0.9390    -1.0050 c6         1 A6B      -0.058733
      8 C8         -11.6880    -0.5380    -0.9840 c6         1 A6B      -0.068733
      9 C9         -10.6730    -2.3480     0.4810 c6         1 A6B      -0.068733
     10 C10        -10.5710    -1.6190    -0.8880 c6         1 A6B      -0.060700
     11 C11         -7.6080     0.8470    -0.0450 c          1 A6B       0.604100
     12 N12         -6.7060     0.7330     0.9940 ns         1 A6B      -0.510900
     13 O13         -7.3310     1.4850    -1.0520 o          1 A6B      -0.607100
     14 C14         -5.3530     1.2920     0.9960 c3         1 A6B       0.106000
     15 C15         -4.3670     0.4250     0.1870 c3         1 A6B      -0.095400
     16 C16         -2.9280     0.9840     0.1960 c3         1 A6B      -0.072400
     17 C17         -1.9380     0.1170    -0.6120 c3         1 A6B      -0.073400
     18 C18         -0.4990     0.6770    -0.6030 c3         1 A6B      -0.094400
     19 C19          0.4860    -0.1910    -1.4100 c3         1 A6B       0.105000
     20 C21         11.1050    -1.6430     1.4420 c          1 A6B       0.614000
     21 N22          9.8370    -1.2580     1.7090 ns         1 A6B      -0.514900
     22 C23          9.6990     0.1950     1.8630 c5         1 A6B       0.099700
     23 C24         11.1790     0.7010     1.6060 c5         1 A6B       0.101700
     24 N25         11.9080    -0.5560     1.4140 ns         1 A6B      -0.520900
     25 C26         11.2300     1.4100     0.2100 c5         1 A6B       0.027600
     26 S27          9.8850     0.6610    -0.8180 ss         1 A6B      -0.406000
     27 C28          8.8000     0.7130     0.6800 c5         1 A6B       0.070300
     28 C30          7.4660    -0.0470     0.4490 c3         1 A6B      -0.058400
     29 C31          6.5270     0.6170    -0.5850 c3         1 A6B      -0.078400
     30 C32          5.1910    -0.1390    -0.7630 c3         1 A6B      -0.065400
     31 C33          4.2540     0.5270    -1.7980 c3         1 A6B      -0.155400
     32 C34          2.9380    -0.2450    -1.9440 c          1 A6B       0.597100
     33 O35          2.8590    -1.3090    -2.5420 o          1 A6B      -0.606100
     34 N36          1.8390     0.3620    -1.3820 ns         1 A6B      -0.510900
     35 H2         -10.0300     1.9240     0.8790 hc         1 A6B       0.046533
     36 H2A        -10.0990     1.7620    -0.8690 hc         1 A6B       0.046533
     37 H3         -12.3310     1.2430     0.1090 hc         1 A6B       0.051033
     38 H4         -11.5430     0.4670     2.3670 hc         1 A6B       0.041200
     39 H4A        -12.6150    -0.7260     1.6430 hc         1 A6B       0.041200
     40 H5         -10.5640    -1.8310     2.5980 hc         1 A6B       0.051033
     41 H6          -8.3270    -1.3720     1.5960 hc         1 A6B       0.046533
     42 H6A         -8.9910     0.0860     2.3310 hc         1 A6B       0.046533
     43 H7          -9.0800    -0.4730    -1.9950 hc         1 A6B       0.046533
     44 H7A         -8.3800    -1.6940    -0.9450 hc         1 A6B       0.046533
     45 H8         -12.6780    -1.0130    -0.9380 hc         1 A6B       0.041200
     46 H8A        -11.6360    -0.0250    -1.9550 hc         1 A6B       0.041200
     47 H9          -9.9030    -3.1290     0.5540 hc         1 A6B       0.041200
     48 H9A        -11.6420    -2.8590     0.5680 hc         1 A6B       0.041200
     49 H10        -10.6930    -2.3480    -1.7010 hc         1 A6B       0.051033
     50 HN12        -7.0030     0.1960     1.7980 hn         1 A6B       0.312500
     51 H14         -5.3820     2.3080     0.5800 h1         1 A6B       0.050200
     52 H14A        -5.0080     1.3640     2.0360 h1         1 A6B       0.050200
     53 H15         -4.3620    -0.5910     0.6010 hc         1 A6B       0.042700
     54 H15A        -4.7170     0.3490    -0.8490 hc         1 A6B       0.042700
     55 H16         -2.9350     2.0020    -0.2150 hc         1 A6B       0.043200
     56 H16A        -2.5770     1.0600     1.2330 hc         1 A6B       0.043200
     57 H17         -1.9310    -0.9000    -0.2020 hc         1 A6B       0.043200
     58 H17A        -2.2890     0.0420    -1.6500 hc         1 A6B       0.043200
     59 H18         -0.5030     1.6930    -1.0160 hc         1 A6B       0.043200
     60 H18A        -0.1460     0.7500     0.4330 hc         1 A6B       0.043200
     61 H19          0.5080    -1.2060    -0.9930 h1         1 A6B       0.051700
     62 H19A         0.1510    -0.2540    -2.4550 h1         1 A6B       0.051700
     63 HN22         9.1060    -1.9550     1.7730 hn         1 A6B       0.339500
     64 H23          9.3130     0.4800     2.8510 h1         1 A6B       0.063700
     65 H24         11.5850     1.3150     2.4210 h1         1 A6B       0.071700
     66 HN25        12.8960    -0.6690     1.2240 hn         1 A6B       0.340500
     67 H26         11.0250     2.4830     0.3220 h1         1 A6B       0.077200
     68 H26A        12.2060     1.3090    -0.2830 h1         1 A6B       0.077200
     69 H28          8.5500     1.7660     0.8710 h1         1 A6B       0.068700
     70 H30          7.6700    -1.0750     0.1240 hc         1 A6B       0.054200
     71 H30A         6.9300    -0.1230     1.4030 hc         1 A6B       0.054200
     72 H31          6.3180     1.6480    -0.2710 hc         1 A6B       0.044700
     73 H31A         7.0350     0.6760    -1.5560 hc         1 A6B       0.044700
     74 H32          5.4000    -1.1710    -1.0760 hc         1 A6B       0.054700
     75 H32A         4.6760    -0.1970     0.2040 hc         1 A6B       0.054700
     76 H33          4.0510     1.5540    -1.4720 hc         1 A6B       0.055700
     77 H33A         4.7620     0.5400    -2.7700 hc         1 A6B       0.055700
     78 HN36         1.9930     1.2470    -0.9130 hn         1 A6B       0.311500
     79 O29         11.4700    -2.7900     1.2730 o          1 A6B      -0.576000
@<TRIPOS>BOND
     1     1     2 1   
     2     1     6 1   
     3     1     7 1   
     4     1    11 1   
     5     2     3 1   
     6     2    35 1   
     7     2    36 1   
     8     3     4 1   
     9     3     8 1   
    10     3    37 1   
    11     4     5 1   
    12     4    38 1   
    13     4    39 1   
    14     5     6 1   
    15     5     9 1   
    16     5    40 1   
    17     6    41 1   
    18     6    42 1   
    19     7    10 1   
    20     7    43 1   
    21     7    44 1   
    22     8    10 1   
    23     8    45 1   
    24     8    46 1   
    25     9    10 1   
    26     9    47 1   
    27     9    48 1   
    28    10    49 1   
    29    11    12 1   
    30    11    13 2   
    31    12    14 1   
    32    12    50 1   
    33    14    15 1   
    34    14    51 1   
    35    14    52 1   
    36    15    16 1   
    37    15    53 1   
    38    15    54 1   
    39    16    17 1   
    40    16    55 1   
    41    16    56 1   
    42    17    18 1   
    43    17    57 1   
    44    17    58 1   
    45    18    19 1   
    46    18    59 1   
    47    18    60 1   
    48    19    34 1   
    49    19    61 1   
    50    19    62 1   
    51    20    21 1   
    52    20    24 1   
    53    20    79 2   
    54    21    22 1   
    55    21    63 1   
    56    22    23 1   
    57    22    27 1   
    58    22    64 1   
    59    23    24 1   
    60    23    25 1   
    61    23    65 1   
    62    24    66 1   
    63    25    26 1   
    64    25    67 1   
    65    25    68 1   
    66    26    27 1   
    67    27    28 1   
    68    27    69 1   
    69    28    29 1   
    70    28    70 1   
    71    28    71 1   
    72    29    30 1   
    73    29    72 1   
    74    29    73 1   
    75    30    31 1   
    76    30    74 1   
    77    30    75 1   
    78    31    32 1   
    79    31    76 1   
    80    31    77 1   
    81    32    33 2   
    82    32    34 1   
    83    34    78 1   
@<TRIPOS>SUBSTRUCTURE
     1 A6B         1 TEMP              0 ****  ****    0 ROOT
