@<TRIPOS>MOLECULE
A6B
   79    83     1     0     0
SMALL
abcg2


@<TRIPOS>ATOM
      1 C1          -9.3320     0.4240     0.0750 c6         1 A6B      -0.123000
      2 C2         -10.5890     1.3030     0.0660 c6         1 A6B      -0.058733
      3 C3         -11.8450     0.4300     0.0840 c6         1 A6B      -0.060700
      4 C4         -11.8520    -0.4330     1.3470 c6         1 A6B      -0.068733
      5 C5         -10.6110    -1.3260     1.3570 c6         1 A6B      -0.060700
      6 C6          -9.3540    -0.4540     1.3420 c6         1 A6B      -0.058733
      7 C7          -9.3630    -0.4950    -1.1630 c6         1 A6B      -0.058733
      8 C8         -11.8610    -0.4720    -1.1500 c6         1 A6B      -0.068733
      9 C9         -10.6190    -2.2300     0.1220 c6         1 A6B      -0.068733
     10 C10        -10.6210    -1.3660    -1.1410 c6         1 A6B      -0.060700
     11 C11         -8.0790     1.3000     0.0490 c          1 A6B       0.604100
     12 N12         -6.9070     0.6440     0.0660 ns         1 A6B      -0.510900
     13 O13         -8.1240     2.5240     0.0110 o          1 A6B      -0.607100
     14 C14         -5.6210     1.3080     0.0210 c3         1 A6B       0.106000
     15 C15         -4.4970     0.2860     0.0210 c3         1 A6B      -0.095400
     16 C16         -3.1230     0.9390    -0.0560 c3         1 A6B      -0.072400
     17 C17         -1.9930    -0.0820    -0.0540 c3         1 A6B      -0.073400
     18 C18         -0.6140     0.5560    -0.1530 c3         1 A6B      -0.094400
     19 C19          0.4890    -0.4890    -0.1490 c3         1 A6B       0.105000
     20 C21         11.7720    -1.5060     0.3760 c          1 A6B       0.614000
     21 N22         10.5520    -1.2780     0.9310 ns         1 A6B      -0.514900
     22 C23         10.3310     0.0990     1.2930 c5         1 A6B       0.099700
     23 C24         11.6090     0.8030     0.7460 c5         1 A6B       0.101700
     24 N25         12.4110    -0.3100     0.3070 ns         1 A6B      -0.520900
     25 C26         11.2030     1.7540    -0.3850 c5         1 A6B       0.027600
     26 S27          9.6670     1.0930    -1.0820 ss         1 A6B      -0.406000
     27 C28          9.1020     0.7100     0.6080 c5         1 A6B       0.070300
     28 C30          7.8650    -0.1700     0.6310 c3         1 A6B      -0.058400
     29 C31          6.6470     0.4750    -0.0200 c3         1 A6B      -0.078400
     30 C32          5.3900    -0.3690     0.1420 c3         1 A6B      -0.065400
     31 C33          4.1870     0.2600    -0.5490 c3         1 A6B      -0.155400
     32 C34          2.9260    -0.5660    -0.4080 c          1 A6B       0.597100
     33 O35          2.9380    -1.7900    -0.4620 o          1 A6B      -0.606100
     34 N36          1.7930     0.1330    -0.2460 ns         1 A6B      -0.510900
     35 H2         -10.5880     1.9670     0.9350 hc         1 A6B       0.046533
     36 H2A        -10.5950     1.9400    -0.8220 hc         1 A6B       0.046533
     37 H3         -12.7260     1.0790     0.0770 hc         1 A6B       0.051033
     38 H4         -11.8670     0.2010     2.2390 hc         1 A6B       0.041200
     39 H4A        -12.7590    -1.0470     1.3780 hc         1 A6B       0.041200
     40 H5         -10.6050    -1.9410     2.2620 hc         1 A6B       0.051033
     41 H6          -8.4690    -1.0980     1.3850 hc         1 A6B       0.046533
     42 H6A         -9.3230     0.1810     2.2340 hc         1 A6B       0.046533
     43 H7          -9.3380     0.1100    -2.0750 hc         1 A6B       0.046533
     44 H7A         -8.4790    -1.1400    -1.1890 hc         1 A6B       0.046533
     45 H8         -12.7690    -1.0850    -1.1580 hc         1 A6B       0.041200
     46 H8A        -11.8800     0.1340    -2.0620 hc         1 A6B       0.041200
     47 H9          -9.7420    -2.8840     0.1290 hc         1 A6B       0.041200
     48 H9A        -11.5010    -2.8770     0.1360 hc         1 A6B       0.041200
     49 H10        -10.6210    -2.0100    -2.0260 hc         1 A6B       0.051033
     50 HN12        -6.9080    -0.3620     0.0960 hn         1 A6B       0.312500
     51 H14         -5.5540     1.9330    -0.8750 h1         1 A6B       0.050200
     52 H14A        -5.5140     1.9780     0.8790 h1         1 A6B       0.050200
     53 H15         -4.5610    -0.3280     0.9260 hc         1 A6B       0.042700
     54 H15A        -4.6240    -0.3950    -0.8280 hc         1 A6B       0.042700
     55 H16         -3.0600     1.5510    -0.9620 hc         1 A6B       0.043200
     56 H16A        -2.9960     1.6260     0.7870 hc         1 A6B       0.043200
     57 H17         -2.0510    -0.6870     0.8570 hc         1 A6B       0.043200
     58 H17A        -2.1310    -0.7770    -0.8900 hc         1 A6B       0.043200
     59 H18         -0.5500     1.1540    -1.0680 hc         1 A6B       0.043200
     60 H18A        -0.4700     1.2480     0.6840 hc         1 A6B       0.043200
     61 H19          0.4250    -1.0910     0.7630 h1         1 A6B       0.051700
     62 H19A         0.3490    -1.1750    -0.9880 h1         1 A6B       0.051700
     63 HN22        10.0230    -2.0310     1.3360 hn         1 A6B       0.339500
     64 H23         10.2340     0.2130     2.3770 h1         1 A6B       0.063700
     65 H24         12.1230     1.3700     1.5250 h1         1 A6B       0.071700
     66 HN25        13.2460    -0.1910    -0.2420 hn         1 A6B       0.340500
     67 H26         11.0230     2.7540     0.0130 h1         1 A6B       0.077200
     68 H26A        11.9680     1.8300    -1.1570 h1         1 A6B       0.077200
     69 H28          8.8770     1.6600     1.1050 h1         1 A6B       0.068700
     70 H30          8.0820    -1.1230     0.1420 hc         1 A6B       0.054200
     71 H30A         7.6350    -0.3990     1.6770 hc         1 A6B       0.054200
     72 H31          6.4820     1.4670     0.4130 hc         1 A6B       0.044700
     73 H31A         6.8400     0.6350    -1.0860 hc         1 A6B       0.044700
     74 H32          5.5650    -1.3680    -0.2630 hc         1 A6B       0.054700
     75 H32A         5.1760    -0.4980     1.2070 hc         1 A6B       0.054700
     76 H33          4.0260     1.2750    -0.1750 hc         1 A6B       0.055700
     77 H33A         4.3910     0.3610    -1.6200 hc         1 A6B       0.055700
     78 HN36         1.8470     1.1370    -0.1820 hn         1 A6B       0.311500
     79 O29         12.2140    -2.5870     0.0180 o          1 A6B      -0.576000
@<TRIPOS>BOND
     1     1     2 1   
     2     1     6 1   
     3     1     7 1   
     4     1    11 1   
     5     2     3 1   
     6     2    35 1   
     7     2    36 1   
     8     3     4 1   
     9     3     8 1   
    10     3    37 1   
    11     4     5 1   
    12     4    38 1   
    13     4    39 1   
    14     5     6 1   
    15     5     9 1   
    16     5    40 1   
    17     6    41 1   
    18     6    42 1   
    19     7    10 1   
    20     7    43 1   
    21     7    44 1   
    22     8    10 1   
    23     8    45 1   
    24     8    46 1   
    25     9    10 1   
    26     9    47 1   
    27     9    48 1   
    28    10    49 1   
    29    11    12 1   
    30    11    13 2   
    31    12    14 1   
    32    12    50 1   
    33    14    15 1   
    34    14    51 1   
    35    14    52 1   
    36    15    16 1   
    37    15    53 1   
    38    15    54 1   
    39    16    17 1   
    40    16    55 1   
    41    16    56 1   
    42    17    18 1   
    43    17    57 1   
    44    17    58 1   
    45    18    19 1   
    46    18    59 1   
    47    18    60 1   
    48    19    34 1   
    49    19    61 1   
    50    19    62 1   
    51    20    21 1   
    52    20    24 1   
    53    20    79 2   
    54    21    22 1   
    55    21    63 1   
    56    22    23 1   
    57    22    27 1   
    58    22    64 1   
    59    23    24 1   
    60    23    25 1   
    61    23    65 1   
    62    24    66 1   
    63    25    26 1   
    64    25    67 1   
    65    25    68 1   
    66    26    27 1   
    67    27    28 1   
    68    27    69 1   
    69    28    29 1   
    70    28    70 1   
    71    28    71 1   
    72    29    30 1   
    73    29    72 1   
    74    29    73 1   
    75    30    31 1   
    76    30    74 1   
    77    30    75 1   
    78    31    32 1   
    79    31    76 1   
    80    31    77 1   
    81    32    33 2   
    82    32    34 1   
    83    34    78 1   
@<TRIPOS>SUBSTRUCTURE
     1 A6B         1 TEMP              0 ****  ****    0 ROOT
