@<TRIPOS>MOLECULE
A6D
   48    51     1     0     0
SMALL
abcg2


@<TRIPOS>ATOM
      1 N1          -6.8100     1.1590     1.3190 nb         1 A6D      -0.303000
      2 C2          -6.5830    -0.1410     1.1510 ca         1 A6D       0.184900
      3 N3          -5.5000    -0.7310     0.6740 nb         1 A6D      -0.218000
      4 C4          -4.5620     0.1530     0.3470 ca         1 A6D       0.144500
      5 C5          -4.6490     1.5300     0.4680 ca         1 A6D      -0.102600
      6 C6          -5.8560     2.0360     0.9850 ca         1 A6D       0.452900
      7 N6          -6.0790     3.3390     1.1530 nv         1 A6D      -1.065900
      8 N7          -3.4900     2.1310     0.0470 nc         1 A6D      -0.550100
      9 C8          -2.7300     1.1450    -0.3210 cd         1 A6D       0.409700
     10 N9          -3.3190    -0.0820    -0.1690 na         1 A6D      -0.289300
     11 OAC         -1.8020    -3.8900    -1.5690 oh         1 A6D      -0.702000
     12 OAD         -3.5480    -2.0000    -2.6250 oh         1 A6D      -0.690000
     13 CAF          6.0810     0.6720     2.1120 ca         1 A6D      -0.119000
     14 CAG          5.3440    -0.4900     1.9480 ca         1 A6D      -0.048000
     15 CAH          6.1240     1.6230     1.1040 ca         1 A6D      -0.039000
     16 CAK          4.6750     0.2170    -0.2440 ca         1 A6D      -0.035000
     17 CAL          3.8250    -1.9700     0.6100 c3         1 A6D       0.089900
     18 OAQ         -1.5270    -1.4980     0.2220 os         1 A6D      -0.431000
     19 SAR          2.2110    -1.8560     1.4660 ss         1 A6D      -0.219000
     20 SAS          1.2940    -0.3120     0.4850 ss         1 A6D      -0.173000
     21 CAT          4.6400    -0.7300     0.7700 ca         1 A6D      -0.095300
     22 CAV          5.4150     1.3770    -0.0610 ca         1 A6D      -0.176200
     23 CAY         -1.2860    -2.6140    -1.8400 c5         1 A6D       0.111300
     24 CAZ         -2.4090    -1.5780    -1.9390 c5         1 A6D       0.081300
     25 CBA         -0.5420    -2.1170    -0.6050 c5         1 A6D       0.169300
     26 CBB         -2.7420    -1.3680    -0.4620 c5         1 A6D       0.316300
     27 NBD          5.4460     2.3670    -1.1290 no         1 A6D       0.694200
     28 H2          -7.3940    -0.7980     1.4460 h5         1 A6D       0.046100
     29 HN6         -6.9560     3.6620     1.5230 hn         1 A6D       0.507000
     30 HN6A        -5.3860     4.0230     0.9040 hn         1 A6D       0.507000
     31 H8          -1.7250     1.2530    -0.7000 h5         1 A6D       0.063800
     32 HOAC        -2.5230    -4.0580    -2.1870 ho         1 A6D       0.525000
     33 HOAD        -3.4160    -1.8540    -3.5680 ho         1 A6D       0.515000
     34 HAG          5.3160    -1.2210     2.7470 ha         1 A6D       0.129000
     35 HAH          6.6990     2.5280     1.2340 ha         1 A6D       0.154000
     36 HAK          4.1380     0.0400    -1.1650 ha         1 A6D       0.149000
     37 HAL          4.3090    -2.8310     1.0760 h1         1 A6D       0.083700
     38 HALA         3.6560    -2.2140    -0.4390 h1         1 A6D       0.083700
     39 HAY         -0.6460    -2.6130    -2.7320 h1         1 A6D       0.054700
     40 HAZ         -2.0050    -0.6490    -2.3610 h1         1 A6D       0.051700
     41 HBA         -0.1060    -2.9570    -0.0570 h1         1 A6D       0.106700
     42 HBB         -3.4750    -2.1120    -0.1300 h2         1 A6D       0.125700
     43 CAM          0.5620    -1.1370    -0.9580 c3         1 A6D       0.010600
     44 HAF          6.6290     0.8430     3.0280 ha         1 A6D       0.132000
     45 OAB          6.1090     3.3630    -0.9620 o          1 A6D      -0.399000
     46 OAE          4.8090     2.1420    -2.1320 o          1 A6D      -0.399000
     47 HAM          0.2030    -0.3180    -1.5880 h1         1 A6D       0.077200
     48 HAMA         1.3460    -1.6480    -1.5190 h1         1 A6D       0.077200
@<TRIPOS>BOND
     1     1     2 ar  
     2     1     6 ar  
     3     2     3 ar  
     4     2    28 1   
     5     3     4 ar  
     6     4     5 ar  
     7     4    10 1   
     8     5     6 ar  
     9     5     8 1   
    10     6     7 1   
    11     7    29 1   
    12     7    30 1   
    13     8     9 2   
    14     9    10 1   
    15     9    31 1   
    16    10    26 1   
    17    11    23 1   
    18    11    32 1   
    19    12    24 1   
    20    12    33 1   
    21    13    14 ar  
    22    13    15 ar  
    23    13    44 1   
    24    14    21 ar  
    25    14    34 1   
    26    15    22 ar  
    27    15    35 1   
    28    16    21 ar  
    29    16    22 ar  
    30    16    36 1   
    31    17    19 1   
    32    17    21 1   
    33    17    37 1   
    34    17    38 1   
    35    18    25 1   
    36    18    26 1   
    37    19    20 1   
    38    20    43 1   
    39    22    27 1   
    40    23    24 1   
    41    23    25 1   
    42    23    39 1   
    43    24    26 1   
    44    24    40 1   
    45    25    41 1   
    46    25    43 1   
    47    26    42 1   
    48    27    45 1   
    49    27    46 1   
    50    43    47 1   
    51    43    48 1   
@<TRIPOS>SUBSTRUCTURE
     1 A6D         1 TEMP              0 ****  ****    0 ROOT
