@<TRIPOS>MOLECULE
A6D
   48    51     1     0     0
SMALL
No Charge or Current Charge


@<TRIPOS>ATOM
      1 N1          -5.4550     2.4670    -0.6440 nb         1 A6D      -0.303000
      2 C2          -5.5630     1.2580    -1.2430 ca         1 A6D       0.184900
      3 N3          -4.8420     0.1480    -0.9590 nb         1 A6D      -0.218000
      4 C4          -3.9230     0.2740     0.0210 ca         1 A6D       0.144500
      5 C5          -3.7380     1.4550     0.6940 ca         1 A6D      -0.102600
      6 C6          -4.5390     2.5590     0.3310 ca         1 A6D       0.452900
      7 N6          -4.4290     3.7720     0.9350 nv         1 A6D      -1.065900
      8 N7          -2.7490     1.3650     1.6660 nc         1 A6D      -0.550100
      9 C8          -2.3590     0.0820     1.5480 cd         1 A6D       0.409700
     10 N9          -3.0370    -0.6350     0.5440 na         1 A6D      -0.289300
     11 OAC         -1.9720    -4.6820    -1.2280 oh         1 A6D      -0.702000
     12 OAD         -3.9810    -3.0590    -1.8460 oh         1 A6D      -0.690000
     13 CAF          5.8380     0.9960     1.7130 ca         1 A6D      -0.119000
     14 CAG          5.3430    -0.2730     1.3710 ca         1 A6D      -0.048000
     15 CAH          5.4510     2.1300     0.9790 ca         1 A6D      -0.039000
     16 CAK          4.0660     0.7180    -0.4490 ca         1 A6D      -0.035000
     17 CAL          3.9170    -1.7940    -0.0760 c3         1 A6D       0.089900
     18 OAQ         -1.6380    -2.5480     0.7790 os         1 A6D      -0.431000
     19 SAR          2.5460    -2.2910     1.0580 ss         1 A6D      -0.219000
     20 SAS          1.0910    -0.8100     0.7750 ss         1 A6D      -0.173000
     21 CAT          4.4560    -0.4170     0.2880 ca         1 A6D      -0.095300
     22 CAV          4.5590     2.0010    -0.1110 ca         1 A6D      -0.176200
     23 CAY         -1.5630    -3.3260    -1.4370 c5         1 A6D       0.111300
     24 CAZ         -2.8060    -2.3910    -1.3370 c5         1 A6D       0.081300
     25 CBA         -0.6790    -2.7650    -0.2830 c5         1 A6D       0.169300
     26 CBB         -2.8710    -2.0490     0.2050 c5         1 A6D       0.316300
     27 NBD          4.1390     3.2070    -0.8950 no         1 A6D       0.694200
     28 H2          -6.3060     1.1690    -2.0340 h5         1 A6D       0.046100
     29 HN6         -4.8030     4.5820     0.4480 hn         1 A6D       0.507000
     30 HN6A        -3.6070     3.9260     1.5140 hn         1 A6D       0.507000
     31 H8          -1.5990    -0.3930     2.1570 h5         1 A6D       0.063800
     32 HOAC        -2.9370    -4.6480    -1.4580 ho         1 A6D       0.525000
     33 HOAD        -4.6730    -2.3700    -1.9940 ho         1 A6D       0.515000
     34 HAG          5.6460    -1.1440     1.9490 ha         1 A6D       0.129000
     35 HAH          5.8480     3.1020     1.2650 ha         1 A6D       0.154000
     36 HAK          3.3750     0.5960    -1.2820 ha         1 A6D       0.149000
     37 HAL          4.7220    -2.5380    -0.0070 h1         1 A6D       0.083700
     38 HALA         3.5450    -1.7960    -1.1090 h1         1 A6D       0.083700
     39 HAY         -1.0640    -3.2260    -2.4110 h1         1 A6D       0.054700
     40 HAZ         -2.6170    -1.4750    -1.9150 h1         1 A6D       0.051700
     41 HBA          0.0590    -3.5100     0.0440 h1         1 A6D       0.106700
     42 HBB         -3.7170    -2.5690     0.6710 h2         1 A6D       0.125700
     43 CAM          0.0700    -1.4470    -0.6270 c3         1 A6D       0.010600
     44 HAF          6.5230     1.1010     2.5510 ha         1 A6D       0.132000
     45 OAB          4.5940     4.3100    -0.5630 o          1 A6D      -0.399000
     46 OAE          3.3560     3.0480    -1.8420 o          1 A6D      -0.399000
     47 HAM         -0.6430    -0.6670    -0.9190 h1         1 A6D       0.077200
     48 HAMA         0.7340    -1.6280    -1.4820 h1         1 A6D       0.077200
@<TRIPOS>BOND
     1     1     2 ar  
     2     1     6 ar  
     3     2     3 ar  
     4     2    28 1   
     5     3     4 ar  
     6     4     5 ar  
     7     4    10 1   
     8     5     6 ar  
     9     5     8 1   
    10     6     7 1   
    11     7    29 1   
    12     7    30 1   
    13     8     9 2   
    14     9    10 1   
    15     9    31 1   
    16    10    26 1   
    17    11    23 1   
    18    11    32 1   
    19    12    24 1   
    20    12    33 1   
    21    13    14 ar  
    22    13    15 ar  
    23    13    44 1   
    24    14    21 ar  
    25    14    34 1   
    26    15    22 ar  
    27    15    35 1   
    28    16    21 ar  
    29    16    22 ar  
    30    16    36 1   
    31    17    19 1   
    32    17    21 1   
    33    17    37 1   
    34    17    38 1   
    35    18    25 1   
    36    18    26 1   
    37    19    20 1   
    38    20    43 1   
    39    22    27 1   
    40    23    24 1   
    41    23    25 1   
    42    23    39 1   
    43    24    26 1   
    44    24    40 1   
    45    25    41 1   
    46    25    43 1   
    47    26    42 1   
    48    27    45 1   
    49    27    46 1   
    50    43    47 1   
    51    43    48 1   
@<TRIPOS>SUBSTRUCTURE
     1 A6D         1 TEMP              0 ****  ****    0 ROOT
