@<TRIPOS>MOLECULE
A6E
   34    35     1     0     0
SMALL
No Charge or Current Charge


@<TRIPOS>ATOM
      1 C12          5.3620    -1.3390    -0.0440 ca         1 A6E      -0.113000
      2 C11          3.9760    -1.5120     0.1350 ca         1 A6E      -0.146500
      3 C10         -4.2570     1.1860     0.6850 c6         1 A6E       0.092000
      4 C9          -5.0680     1.0360    -0.6240 c6         1 A6E       0.032100
      5 C8          -4.1330    -1.6230    -0.5400 c6         1 A6E       0.032100
      6 C7          -3.4360    -1.1600     0.7600 c6         1 A6E       0.092000
      7 C4           0.7900     0.4200     0.2340 c3         1 A6E       0.174600
      8 C5          -0.5890    -0.2190     0.4730 c3         1 A6E      -0.165400
      9 C6          -1.7610     0.7710     0.4710 c          1 A6E       0.606100
     10 C3           3.1090    -0.4070     0.0840 ca         1 A6E       0.130100
     11 C2           3.6360     0.8850    -0.1470 ca         1 A6E      -0.146500
     12 C1           5.0220     1.0560    -0.3260 ca         1 A6E      -0.113000
     13 O1          -1.5660     1.9670     0.2930 o          1 A6E      -0.600100
     14 N           -3.0730     0.2850     0.6950 n          1 A6E      -0.407800
     15 S           -5.6960    -0.6890    -0.9020 ss         1 A6E      -0.430000
     16 O            1.7610    -0.6390     0.2660 os         1 A6E      -0.357100
     17 C            5.8790    -0.0550    -0.2730 ca         1 A6E       0.131000
     18 F            7.2080     0.1140    -0.4450 f          1 A6E      -0.181000
     19 H1           6.0310    -2.1950    -0.0050 ha         1 A6E       0.132000
     20 H2           3.5720    -2.5060     0.3130 ha         1 A6E       0.127500
     21 H4          -4.9040     0.9450     1.5410 h1         1 A6E       0.069950
     22 H5          -5.9280     1.7200    -0.6100 h1         1 A6E       0.078450
     23 H6          -4.4330     1.3120    -1.4780 h1         1 A6E       0.078450
     24 H7          -3.4480    -1.4880    -1.3900 h1         1 A6E       0.078450
     25 H8          -4.3780    -2.6920    -0.4720 h1         1 A6E       0.078450
     26 H9          -4.1200    -1.3190     1.6060 h1         1 A6E       0.069950
     27 H10         -2.5610    -1.7950     0.9500 h1         1 A6E       0.069950
     28 H11          0.7980     0.9260    -0.7410 h1         1 A6E       0.053700
     29 H12          0.9950     1.1610     1.0180 h1         1 A6E       0.053700
     30 H13         -0.8010    -1.0020    -0.2630 hc         1 A6E       0.074200
     31 H14         -0.6150    -0.7750     1.4170 hc         1 A6E       0.074200
     32 H15          2.9920     1.7590    -0.1920 ha         1 A6E       0.127500
     33 H16          5.4320     2.0470    -0.5040 ha         1 A6E       0.132000
     34 H3          -3.9510     2.2350     0.8050 h1         1 A6E       0.069950
@<TRIPOS>BOND
     1     1     2 ar  
     2     1    17 ar  
     3     1    19 1   
     4     2    10 ar  
     5     2    20 1   
     6     3     4 1   
     7     3    14 1   
     8     3    21 1   
     9     3    34 1   
    10     4    15 1   
    11     4    22 1   
    12     4    23 1   
    13     5     6 1   
    14     5    15 1   
    15     5    24 1   
    16     5    25 1   
    17     6    14 1   
    18     6    26 1   
    19     6    27 1   
    20     7     8 1   
    21     7    16 1   
    22     7    28 1   
    23     7    29 1   
    24     8     9 1   
    25     8    30 1   
    26     8    31 1   
    27     9    13 2   
    28     9    14 1   
    29    10    11 ar  
    30    10    16 1   
    31    11    12 ar  
    32    11    32 1   
    33    12    17 ar  
    34    12    33 1   
    35    17    18 1   
@<TRIPOS>SUBSTRUCTURE
     1 A6E         1 TEMP              0 ****  ****    0 ROOT
