@<TRIPOS>MOLECULE
A6E
   34    35     1     0     0
SMALL
bcc


@<TRIPOS>ATOM
      1 C12          5.1860    -1.2940    -0.1700 ca         1 A6E      -0.131000
      2 C11          3.8430    -1.4940     0.0910 ca         1 A6E      -0.164500
      3 C10         -4.1330     1.1950     0.6160 c6         1 A6E       0.092000
      4 C9          -4.7630     1.0330    -0.7590 c6         1 A6E      -0.015800
      5 C8          -3.9100    -1.5750    -0.5360 c6         1 A6E      -0.015800
      6 C7          -3.3810    -1.1160     0.8140 c6         1 A6E       0.092000
      7 C4           0.7130     0.3390     0.3640 c3         1 A6E       0.151400
      8 C5          -0.6380    -0.2990     0.6180 c3         1 A6E      -0.165400
      9 C6          -1.7480     0.7330     0.5960 c          1 A6E       0.673100
     10 C3           2.9560    -0.4150     0.1190 ca         1 A6E       0.130100
     11 C2           3.4370     0.8700    -0.1180 ca         1 A6E      -0.164500
     12 C1           4.7880     1.0720    -0.3820 ca         1 A6E      -0.131000
     13 O1          -1.4940     1.9170     0.4230 o          1 A6E      -0.600100
     14 N           -3.0120     0.2880     0.7900 n          1 A6E      -0.474800
     15 S           -5.3960    -0.6500    -1.0190 ss         1 A6E      -0.334200
     16 O            1.6670    -0.7110     0.3820 os         1 A6E      -0.333900
     17 C            5.6410    -0.0090    -0.4040 ca         1 A6E       0.095900
     18 F            6.9490     0.1880    -0.6580 f          1 A6E      -0.145900
     19 H1           5.8710    -2.1320    -0.1930 ha         1 A6E       0.150000
     20 H2           3.4720    -2.4940     0.2750 ha         1 A6E       0.145500
     21 H4          -4.8730     0.9850     1.3920 h1         1 A6E       0.069950
     22 H5          -5.6170     1.7020    -0.8630 h1         1 A6E       0.078450
     23 H6          -4.0420     1.2850    -1.5390 h1         1 A6E       0.078450
     24 H7          -3.1400    -1.4720    -1.3040 h1         1 A6E       0.078450
     25 H8          -4.2020    -2.6250    -0.4890 h1         1 A6E       0.078450
     26 H9          -4.1510    -1.2540     1.5780 h1         1 A6E       0.069950
     27 H10         -2.5350    -1.7310     1.1110 h1         1 A6E       0.069950
     28 H11          0.7240     0.8470    -0.6050 h1         1 A6E       0.053700
     29 H12          0.9440     1.0810     1.1350 h1         1 A6E       0.053700
     30 H13         -0.8270    -1.0640    -0.1400 hc         1 A6E       0.074200
     31 H14         -0.6300    -0.8140     1.5830 hc         1 A6E       0.074200
     32 H15          2.7830     1.7310    -0.1030 ha         1 A6E       0.145500
     33 H16          5.1600     2.0710    -0.5660 ha         1 A6E       0.150000
     34 H3          -3.7950     2.2200     0.7500 h1         1 A6E       0.069950
@<TRIPOS>BOND
     1     1     2 ar  
     2     1    17 ar  
     3     1    19 1   
     4     2    10 ar  
     5     2    20 1   
     6     3     4 1   
     7     3    14 1   
     8     3    21 1   
     9     3    34 1   
    10     4    15 1   
    11     4    22 1   
    12     4    23 1   
    13     5     6 1   
    14     5    15 1   
    15     5    24 1   
    16     5    25 1   
    17     6    14 1   
    18     6    26 1   
    19     6    27 1   
    20     7     8 1   
    21     7    16 1   
    22     7    28 1   
    23     7    29 1   
    24     8     9 1   
    25     8    30 1   
    26     8    31 1   
    27     9    13 2   
    28     9    14 1   
    29    10    11 ar  
    30    10    16 1   
    31    11    12 ar  
    32    11    32 1   
    33    12    17 ar  
    34    12    33 1   
    35    17    18 1   
@<TRIPOS>SUBSTRUCTURE
     1 A6E         1 TEMP              0 ****  ****    0 ROOT
