@<TRIPOS>MOLECULE
A6F
   61    63     1     0     0
SMALL
No Charge or Current Charge


@<TRIPOS>ATOM
      1 N1         128.9500   114.8970    89.5340 n          1 A6F      -0.402800
      2 C4         129.8120   112.8850    91.5640 c6         1 A6F      -0.096400
      3 C5         128.3330   113.0240    91.1550 c6         1 A6F      -0.084400
      4 C6         128.0100   114.4280    90.5940 c6         1 A6F       0.105000
      5 C7         128.5010   115.7980    88.5480 c          1 A6F       0.639100
      6 C10        129.1920   117.1960    86.7140 c3         1 A6F       0.169900
      7 C13        130.8210   117.0490    92.7580 c6         1 A6F       0.172300
      8 C15        128.6200   117.0220    94.0820 c6         1 A6F      -0.063900
      9 C17        128.8790   118.5740    92.0630 c6         1 A6F      -0.063900
     10 C20        126.0170   119.5160    94.1200 ca         1 A6F      -0.106500
     11 C21        124.6190   119.6530    94.0530 ca         1 A6F      -0.110000
     12 C22        123.8670   118.7960    93.2330 ca         1 A6F      -0.111000
     13 C24        125.9100   117.6650    92.5470 ca         1 A6F      -0.106500
     14 C11        131.0540   115.8250    90.6190 c3         1 A6F       0.149600
     15 C14        130.1640   116.8700    94.1500 c6         1 A6F      -0.086900
     16 C16        128.2020   118.3800    93.4500 c6         1 A6F      -0.015400
     17 C18        130.4200   118.4300    92.1660 c6         1 A6F      -0.086900
     18 C19        126.6750   118.5220    93.3670 ca         1 A6F      -0.074300
     19 C2         130.4170   114.6590    89.7850 c6         1 A6F       0.131700
     20 C23        124.5130   117.8020    92.4800 ca         1 A6F      -0.110000
     21 C29        132.8860   111.3650    88.7210 c3         1 A6F      -0.347100
     22 C3         130.7200   113.2290    90.3570 c6         1 A6F       0.233500
     23 N25        132.1570   113.0540    90.6750 n7         1 A6F      -0.913300
     24 O12        130.4170   115.9570    91.9060 os         1 A6F      -0.467000
     25 O27        134.2900   111.7910    90.9110 o          1 A6F      -0.542000
     26 O28        132.0670   110.5740    91.1380 o          1 A6F      -0.542000
     27 O8         127.3310   116.1280    88.4180 o          1 A6F      -0.538000
     28 O9         129.5180   116.2570    87.7540 os         1 A6F      -0.463100
     29 S26        132.9050   111.5810    90.4890 s6         1 A6F       1.199100
     30 H1         129.9870   111.8560    91.9030 hc         1 A6F       0.061700
     31 H2         130.0310   113.5310    92.4230 hc         1 A6F       0.061700
     32 H3         127.6840   112.8130    92.0150 hc         1 A6F       0.054200
     33 H4         128.0920   112.2700    90.3930 hc         1 A6F       0.054200
     34 H5         128.0250   115.1540    91.4170 h1         1 A6F       0.065200
     35 H6         126.9810   114.4150    90.2050 h1         1 A6F       0.065200
     36 H7         130.0950   117.4790    86.1590 h1         1 A6F       0.048033
     37 H8         128.4780   116.7600    86.0030 h1         1 A6F       0.048033
     38 H9         128.7510   118.1090    87.1350 h1         1 A6F       0.048033
     39 H10        131.9140   117.0080    92.8750 h1         1 A6F       0.032700
     40 H11        128.1990   116.9410    95.0930 hc         1 A6F       0.047700
     41 H12        128.1960   116.1890    93.5070 hc         1 A6F       0.047700
     42 H13        128.6280   119.5660    91.6640 hc         1 A6F       0.047700
     43 H14        128.4920   117.8430    91.3400 hc         1 A6F       0.047700
     44 H15        126.5870   120.1860    94.7600 ha         1 A6F       0.109500
     45 H16        124.1200   120.4230    94.6370 ha         1 A6F       0.111500
     46 H17        122.7850   118.9020    93.1820 ha         1 A6F       0.112000
     47 H18        126.3950   116.8900    91.9590 ha         1 A6F       0.109500
     48 H19        132.1320   115.6550    90.7360 h1         1 A6F       0.033200
     49 H20        130.9330   116.7430    90.0330 h1         1 A6F       0.033200
     50 H21        130.4240   115.8840    94.5580 hc         1 A6F       0.045950
     51 H22        130.5780   117.6110    94.8480 hc         1 A6F       0.045950
     52 H23        128.5840   119.1740    94.1080 hc         1 A6F       0.045700
     53 H24        130.8840   118.5910    91.1850 hc         1 A6F       0.045950
     54 H25        130.8160   119.2260    92.8120 hc         1 A6F       0.045950
     55 H26        130.9380   114.6780    88.8180 h1         1 A6F       0.075700
     56 H27        123.9320   117.1370    91.8450 ha         1 A6F       0.111500
     57 H28        133.3560   112.2490    88.2780 h1         1 A6F       0.102700
     58 H29        133.4570   110.4590    88.4980 h1         1 A6F       0.102700
     59 H30        131.8460   111.2620    88.4000 h1         1 A6F       0.102700
     60 H31        130.4550   112.5330    89.5480 h1         1 A6F       0.061700
     61 H32        132.3140   113.2290    91.6650 hn         1 A6F       0.503000
@<TRIPOS>BOND
     1     1     4 1   
     2     1     5 1   
     3     1    19 1   
     4     2     3 1   
     5     2    22 1   
     6     2    30 1   
     7     2    31 1   
     8     3     4 1   
     9     3    32 1   
    10     3    33 1   
    11     4    34 1   
    12     4    35 1   
    13     5    27 2   
    14     5    28 1   
    15     6    28 1   
    16     6    36 1   
    17     6    37 1   
    18     6    38 1   
    19     7    15 1   
    20     7    17 1   
    21     7    24 1   
    22     7    39 1   
    23     8    15 1   
    24     8    16 1   
    25     8    40 1   
    26     8    41 1   
    27     9    16 1   
    28     9    17 1   
    29     9    42 1   
    30     9    43 1   
    31    10    11 ar  
    32    10    18 ar  
    33    10    44 1   
    34    11    12 ar  
    35    11    45 1   
    36    12    20 ar  
    37    12    46 1   
    38    13    18 ar  
    39    13    20 ar  
    40    13    47 1   
    41    14    19 1   
    42    14    24 1   
    43    14    48 1   
    44    14    49 1   
    45    15    50 1   
    46    15    51 1   
    47    16    18 1   
    48    16    52 1   
    49    17    53 1   
    50    17    54 1   
    51    19    22 1   
    52    19    55 1   
    53    20    56 1   
    54    21    29 1   
    55    21    57 1   
    56    21    58 1   
    57    21    59 1   
    58    22    23 1   
    59    22    60 1   
    60    23    29 1   
    61    23    61 1   
    62    25    29 2   
    63    26    29 2   
@<TRIPOS>SUBSTRUCTURE
     1 A6F         1 TEMP              0 ****  ****    0 ROOT
