@<TRIPOS>MOLECULE
A6F
   61    63     1     0     0
SMALL
abcg2


@<TRIPOS>ATOM
      1 N1         128.9680   114.9340    89.2080 n          1 A6F      -0.402800
      2 C4         129.2800   113.0810    91.4050 c6         1 A6F      -0.096400
      3 C5         127.9370   113.3110    90.7320 c6         1 A6F      -0.084400
      4 C6         127.8590   114.6990    90.1250 c6         1 A6F       0.105000
      5 C7         128.7090   115.5540    88.0310 c          1 A6F       0.639100
      6 C10        129.6480   116.4110    86.0520 c3         1 A6F       0.169900
      7 C13        130.7770   117.0590    92.5250 c6         1 A6F       0.172300
      8 C15        128.7840   116.9090    94.0760 c6         1 A6F      -0.063900
      9 C17        128.7700   118.5600    92.1700 c6         1 A6F      -0.063900
     10 C20        126.2340   119.3610    94.5790 ca         1 A6F      -0.106500
     11 C21        124.8570   119.4870    94.7100 ca         1 A6F      -0.110000
     12 C22        124.0100   118.6590    93.9870 ca         1 A6F      -0.111000
     13 C24        125.9300   117.5850    93.0070 ca         1 A6F      -0.106500
     14 C11        130.9000   115.8860    90.4580 c3         1 A6F       0.149600
     15 C14        130.2990   116.7870    93.9430 c6         1 A6F      -0.086900
     16 C16        128.2890   118.2790    93.5980 c6         1 A6F      -0.015400
     17 C18        130.2850   118.4280    92.0580 c6         1 A6F      -0.086900
     18 C19        126.7930   118.4110    93.7280 ca         1 A6F      -0.074300
     19 C2         130.3310   114.7020    89.6840 c6         1 A6F       0.131700
     20 C23        124.5530   117.7060    93.1330 ca         1 A6F      -0.110000
     21 C29        133.3350   112.0230    89.2300 c3         1 A6F      -0.347100
     22 C3         130.4030   113.3410    90.4090 c6         1 A6F       0.233500
     23 N25        131.7230   113.1940    91.0060 n7         1 A6F      -0.913300
     24 O12        130.2830   116.0100    91.7100 os         1 A6F      -0.467000
     25 O27        133.6030   111.8080    91.8490 o          1 A6F      -0.542000
     26 O28        131.6940   110.6390    90.7220 o          1 A6F      -0.542000
     27 O8         127.6020   115.8690    87.6410 o          1 A6F      -0.538000
     28 O9         129.8160   115.7820    87.3170 os         1 A6F      -0.463100
     29 S26        132.5750   111.7970    90.8190 s6         1 A6F       1.199100
     30 H1         129.3600   112.0530    91.7620 hc         1 A6F       0.061700
     31 H2         129.3820   113.7360    92.2720 hc         1 A6F       0.061700
     32 H3         127.1250   113.1930    91.4510 hc         1 A6F       0.054200
     33 H4         127.7800   112.5620    89.9500 hc         1 A6F       0.054200
     34 H5         127.8580   115.4520    90.9180 h1         1 A6F       0.065200
     35 H6         126.9290   114.8100    89.5760 h1         1 A6F       0.065200
     36 H7         130.6470   116.5060    85.6350 h1         1 A6F       0.048033
     37 H8         129.0360   115.8110    85.3790 h1         1 A6F       0.048033
     38 H9         129.2050   117.4020    86.1490 h1         1 A6F       0.048033
     39 H10        131.8770   117.0440    92.5040 h1         1 A6F       0.032700
     40 H11        128.4920   116.7580    95.1180 hc         1 A6F       0.047700
     41 H12        128.2940   116.1180    93.5010 hc         1 A6F       0.047700
     42 H13        128.4650   119.5660    91.8710 hc         1 A6F       0.047700
     43 H14        128.2850   117.8730    91.4710 hc         1 A6F       0.047700
     44 H15        126.8880   120.0130    95.1470 ha         1 A6F       0.109500
     45 H16        124.4460   120.2340    95.3780 ha         1 A6F       0.111500
     46 H17        122.9370   118.7540    94.0870 ha         1 A6F       0.112000
     47 H18        126.3350   116.8360    92.3360 ha         1 A6F       0.109500
     48 H19        131.9830   115.7430    90.5720 h1         1 A6F       0.033200
     49 H20        130.7680   116.7850    89.8420 h1         1 A6F       0.033200
     50 H21        130.6320   115.7960    94.2630 hc         1 A6F       0.045950
     51 H22        130.7830   117.5090    94.6080 hc         1 A6F       0.045950
     52 H23        128.7450   119.0350    94.2490 hc         1 A6F       0.045700
     53 H24        130.6100   118.6320    91.0350 hc         1 A6F       0.045950
     54 H25        130.7680   119.1860    92.6830 hc         1 A6F       0.045950
     55 H26        130.9780   114.6010    88.8140 h1         1 A6F       0.075700
     56 H27        123.9020   117.0550    92.5640 ha         1 A6F       0.111500
     57 H28        133.9850   112.8930    89.2690 h1         1 A6F       0.102700
     58 H29        133.9120   111.1280    89.0020 h1         1 A6F       0.102700
     59 H30        132.5650   112.1640    88.4740 h1         1 A6F       0.102700
     60 H31        130.3070   112.5880    89.6210 h1         1 A6F       0.061700
     61 H32        131.8290   113.5800    91.9390 hn         1 A6F       0.503000
@<TRIPOS>BOND
     1     1     4 1   
     2     1     5 1   
     3     1    19 1   
     4     2     3 1   
     5     2    22 1   
     6     2    30 1   
     7     2    31 1   
     8     3     4 1   
     9     3    32 1   
    10     3    33 1   
    11     4    34 1   
    12     4    35 1   
    13     5    27 2   
    14     5    28 1   
    15     6    28 1   
    16     6    36 1   
    17     6    37 1   
    18     6    38 1   
    19     7    15 1   
    20     7    17 1   
    21     7    24 1   
    22     7    39 1   
    23     8    15 1   
    24     8    16 1   
    25     8    40 1   
    26     8    41 1   
    27     9    16 1   
    28     9    17 1   
    29     9    42 1   
    30     9    43 1   
    31    10    11 ar  
    32    10    18 ar  
    33    10    44 1   
    34    11    12 ar  
    35    11    45 1   
    36    12    20 ar  
    37    12    46 1   
    38    13    18 ar  
    39    13    20 ar  
    40    13    47 1   
    41    14    19 1   
    42    14    24 1   
    43    14    48 1   
    44    14    49 1   
    45    15    50 1   
    46    15    51 1   
    47    16    18 1   
    48    16    52 1   
    49    17    53 1   
    50    17    54 1   
    51    19    22 1   
    52    19    55 1   
    53    20    56 1   
    54    21    29 1   
    55    21    57 1   
    56    21    58 1   
    57    21    59 1   
    58    22    23 1   
    59    22    60 1   
    60    23    29 1   
    61    23    61 1   
    62    25    29 2   
    63    26    29 2   
@<TRIPOS>SUBSTRUCTURE
     1 A6F         1 TEMP              0 ****  ****    0 ROOT
