@<TRIPOS>MOLECULE
A6H
   24    25     1     0     0
SMALL
No Charge or Current Charge


@<TRIPOS>ATOM
      1 C10          2.5180    -0.0280     1.3480 ca         1 A6H       0.310900
      2 C9          -1.8450     1.2140     0.0450 ca         1 A6H       0.122000
      3 C8          -3.0230     1.2140     0.8130 ca         1 A6H      -0.098000
      4 C7          -3.6190    -0.0020     1.1910 ca         1 A6H      -0.095000
      5 C4          -1.2560    -0.0080    -0.3450 ca         1 A6H       0.128100
      6 C5          -1.8580    -1.2270     0.0330 ca         1 A6H       0.122000
      7 C6          -3.0370    -1.2210     0.8010 ca         1 A6H      -0.098000
      8 C3           1.1470    -0.0160    -0.5230 ca         1 A6H       0.538300
      9 C2           2.2650    -0.0140    -1.3770 ca         1 A6H      -0.127000
     10 C1           3.5640    -0.0200    -0.8340 ca         1 A6H      -0.113000
     11 Cl          -1.1530    -2.7710    -0.4480 cl         1 A6H      -0.175000
     12 O           -0.1010    -0.0100    -1.1000 os         1 A6H      -0.353400
     13 N1           1.2650    -0.0230     0.8260 nb         1 A6H      -0.699000
     14 C            3.7080    -0.0270     0.5630 ca         1 A6H       0.206000
     15 N            4.9810    -0.0320     1.1170 nv         1 A6H      -1.057000
     16 H1           2.5770    -0.0330     2.4360 h4         1 A6H       0.021100
     17 H2          -3.4740     2.1570     1.1120 ha         1 A6H       0.133000
     18 H3          -4.5310    -0.0000     1.7850 ha         1 A6H       0.123000
     19 H4          -3.4980    -2.1620     1.0910 ha         1 A6H       0.133000
     20 H5           2.1160    -0.0090    -2.4520 ha         1 A6H       0.140000
     21 H6           4.4340    -0.0190    -1.4860 ha         1 A6H       0.122000
     22 H7           5.1140    -0.0120     2.1290 hn         1 A6H       0.445000
     23 H8           5.8100    -0.0050     0.5240 hn         1 A6H       0.445000
     24 Cl1         -1.1230     2.7560    -0.4210 cl         1 A6H      -0.175000
@<TRIPOS>BOND
     1     1    13 ar  
     2     1    14 ar  
     3     1    16 1   
     4     2     3 ar  
     5     2     5 ar  
     6     2    24 1   
     7     3     4 ar  
     8     3    17 1   
     9     4     7 ar  
    10     4    18 1   
    11     5     6 ar  
    12     5    12 1   
    13     6     7 ar  
    14     6    11 1   
    15     7    19 1   
    16     8     9 ar  
    17     8    12 1   
    18     8    13 ar  
    19     9    10 ar  
    20     9    20 1   
    21    10    14 ar  
    22    10    21 1   
    23    14    15 1   
    24    15    22 1   
    25    15    23 1   
@<TRIPOS>SUBSTRUCTURE
     1 A6H         1 TEMP              0 ****  ****    0 ROOT
