@<TRIPOS>MOLECULE
A6H
   24    25     1     0     0
SMALL
abcg2


@<TRIPOS>ATOM
      1 C10          2.4300    -0.0710     1.2870 ca         1 A6H       0.310900
      2 C9          -1.7770     1.2050     0.0710 ca         1 A6H       0.122000
      3 C8          -2.9320     1.2080     0.8360 ca         1 A6H      -0.098000
      4 C7          -3.4980     0.0000     1.2120 ca         1 A6H      -0.095000
      5 C4          -1.1900     0.0140    -0.3380 ca         1 A6H       0.128100
      6 C5          -1.7690    -1.1840     0.0610 ca         1 A6H       0.122000
      7 C6          -2.9230    -1.2010     0.8270 ca         1 A6H      -0.098000
      8 C3           1.1330    -0.0160    -0.5720 ca         1 A6H       0.538300
      9 C2           2.2340    -0.0300    -1.4200 ca         1 A6H      -0.127000
     10 C1           3.4840    -0.0700    -0.8410 ca         1 A6H      -0.113000
     11 CL          -1.0300    -2.6600    -0.4320 cl         1 A6H      -0.175000
     12 O           -0.1070     0.0250    -1.1520 os         1 A6H      -0.353400
     13 N1           1.2220    -0.0350     0.7290 nb         1 A6H      -0.699000
     14 C            3.6140    -0.0960     0.5550 ca         1 A6H       0.206000
     15 N            4.8480    -0.1980     1.1660 nv         1 A6H      -1.057000
     16 H1           2.4610    -0.0830     2.3720 h4         1 A6H       0.021100
     17 H2          -3.3810     2.1460     1.1330 ha         1 A6H       0.133000
     18 H3          -4.4000    -0.0060     1.8080 ha         1 A6H       0.123000
     19 H4          -3.3640    -2.1440     1.1200 ha         1 A6H       0.133000
     20 H5           2.1170    -0.0100    -2.4950 ha         1 A6H       0.140000
     21 H6           4.3660    -0.0830    -1.4700 ha         1 A6H       0.122000
     22 H7           4.8730     0.0990     2.1290 hn         1 A6H       0.445000
     23 H8           5.6150     0.1990     0.6470 hn         1 A6H       0.445000
     24 CL1         -1.0440     2.6910    -0.4040 cl         1 A6H      -0.175000
@<TRIPOS>BOND
     1     1    13 ar  
     2     1    14 ar  
     3     1    16 1   
     4     2     3 ar  
     5     2     5 ar  
     6     2    24 1   
     7     3     4 ar  
     8     3    17 1   
     9     4     7 ar  
    10     4    18 1   
    11     5     6 ar  
    12     5    12 1   
    13     6     7 ar  
    14     6    11 1   
    15     7    19 1   
    16     8     9 ar  
    17     8    12 1   
    18     8    13 ar  
    19     9    10 ar  
    20     9    20 1   
    21    10    14 ar  
    22    10    21 1   
    23    14    15 1   
    24    15    22 1   
    25    15    23 1   
@<TRIPOS>SUBSTRUCTURE
     1 A6H         1 TEMP              0 ****  ****    0 ROOT
