@<TRIPOS>MOLECULE
A6I
   67    68     1     0     0
SMALL
No Charge or Current Charge


@<TRIPOS>ATOM
      1 C21          6.7210    -0.9100     1.4170 c3         1 A6I       0.230900
      2 C22          7.8190    -1.7110     0.7300 ca         1 A6I      -0.101300
      3 C24          8.7830    -3.8580     0.0820 ca         1 A6I      -0.116000
      4 C26          9.9070    -1.7900    -0.5310 ca         1 A6I      -0.116000
      5 C19          4.6250     0.1000     0.8700 c          1 A6I       0.638100
      6 C23          7.7680    -3.1190     0.7150 ca         1 A6I      -0.084000
      7 C25          9.8530    -3.1940    -0.5410 ca         1 A6I      -0.099000
      8 C27          8.8930    -1.0500     0.1020 ca         1 A6I      -0.084000
      9 O20          5.6990    -0.6200     0.4500 os         1 A6I      -0.452100
     10 O28          4.4390     0.5120     2.0030 o          1 A6I      -0.548000
     11 N18          3.7690     0.2650    -0.1810 ns         1 A6I      -0.476900
     12 C13          2.4790     0.9890    -0.1370 c3         1 A6I       0.052700
     13 C12          1.4020     0.2050    -0.9430 c          1 A6I       0.586100
     14 O29          1.6730    -0.7010    -1.7230 o          1 A6I      -0.605100
     15 C14          2.6350     2.4410    -0.6780 c3         1 A6I      -0.086400
     16 C15          3.5240     3.3950     0.1700 c3         1 A6I      -0.058700
     17 C17          2.9260     3.6790     1.5690 c3         1 A6I      -0.091100
     18 C16          3.7850     4.7190    -0.5840 c3         1 A6I      -0.091100
     19 N11          0.1000     0.6030    -0.7190 ns         1 A6I      -0.491900
     20 C10         -1.0970     0.0110    -1.3570 c3         1 A6I       0.036700
     21 C09         -2.2950     1.0040    -1.2860 c          1 A6I       0.591100
     22 O31         -2.2680     2.0320    -0.6200 o          1 A6I      -0.608100
     23 C30         -1.4410    -1.3540    -0.7130 c3         1 A6I      -0.111100
     24 C03         -7.5270    -0.1770     0.8010 ca         1 A6I      -0.153600
     25 C04         -6.5970     0.8200     1.1740 ca         1 A6I      -0.070500
     26 C05         -5.6740     1.3290     0.2450 ca         1 A6I      -0.108000
     27 C06         -5.6580     0.8530    -1.0770 ca         1 A6I      -0.090300
     28 C07         -4.6520     1.4000    -2.0790 c3         1 A6I       0.141300
     29 C32         -6.5730    -0.1440    -1.4580 ca         1 A6I      -0.108000
     30 C33         -7.5000    -0.6560    -0.5330 ca         1 A6I      -0.070500
     31 N08         -3.3960     0.6480    -2.0340 ns         1 A6I      -0.499900
     32 N34         -9.4430    -1.6370     1.3870 ns         1 A6I      -0.376400
     33 O01         -8.4810    -0.3360     3.0000 o          1 A6I      -0.557100
     34 O35        -10.5720    -2.0170     2.2130 oh         1 A6I      -0.431100
     35 H7           6.3110    -1.4910     2.2550 h1         1 A6I       0.057200
     36 H8           7.1440     0.0180     1.8260 h1         1 A6I       0.057200
     37 H9           8.7390    -4.9450     0.0730 ha         1 A6I       0.114000
     38 H10         10.7340    -1.2750    -1.0150 ha         1 A6I       0.114000
     39 H20          6.9420    -3.6410     1.1930 ha         1 A6I       0.116000
     40 H21         10.6380    -3.7660    -1.0320 ha         1 A6I       0.112000
     41 H22          8.9410     0.0370     0.1030 ha         1 A6I       0.116000
     42 H30          4.0450    -0.1820    -1.0470 hn         1 A6I       0.334500
     43 H2           2.1220     1.0200     0.9000 h1         1 A6I       0.080700
     44 H15          3.0420     2.3830    -1.6950 hc         1 A6I       0.056700
     45 H16          1.6430     2.8980    -0.7760 hc         1 A6I       0.056700
     46 H3           4.5000     2.9170     0.3150 hc         1 A6I       0.050700
     47 H4           3.5730     4.3600     2.1340 hc         1 A6I       0.035867
     48 H5           1.9350     4.1420     1.4840 hc         1 A6I       0.035867
     49 H6           2.8250     2.7590     2.1570 hc         1 A6I       0.035867
     50 H17          2.8470     5.2570    -0.7670 hc         1 A6I       0.035867
     51 H18          4.4480     5.3720    -0.0040 hc         1 A6I       0.035867
     52 H19          4.2650     4.5270    -1.5510 hc         1 A6I       0.035867
     53 H29         -0.0420     1.3760    -0.0770 hn         1 A6I       0.340500
     54 H1          -0.8800    -0.1470    -2.4220 h1         1 A6I       0.078700
     55 H23         -1.6820    -1.2300     0.3490 hc         1 A6I       0.053700
     56 H24         -2.3030    -1.8160    -1.2080 hc         1 A6I       0.053700
     57 H25         -0.5970    -2.0490    -0.7950 hc         1 A6I       0.053700
     58 H11         -6.5870     1.2090     2.1900 ha         1 A6I       0.127500
     59 H12         -4.9670     2.0950     0.5560 ha         1 A6I       0.122500
     60 H13         -5.0660     1.3320    -3.0940 h1         1 A6I       0.068700
     61 H14         -4.4590     2.4620    -1.8750 h1         1 A6I       0.068700
     62 H26         -6.5680    -0.5270    -2.4770 ha         1 A6I       0.122500
     63 H27         -8.1850    -1.4290    -0.8710 ha         1 A6I       0.127500
     64 H28         -3.3370    -0.2180    -2.5560 hn         1 A6I       0.320500
     65 H31         -9.5460    -1.8010     0.3890 hn         1 A6I       0.331500
     66 H32        -10.5530    -3.0040     2.1940 ho         1 A6I       0.449000
     67 C02         -8.5100    -0.7030     1.8310 c          1 A6I       0.608700
@<TRIPOS>BOND
     1     1     2 1   
     2     1     9 1   
     3     1    35 1   
     4     1    36 1   
     5     2     6 ar  
     6     2     8 ar  
     7     3     6 ar  
     8     3     7 ar  
     9     3    37 1   
    10     4     7 ar  
    11     4     8 ar  
    12     4    38 1   
    13     5     9 1   
    14     5    10 2   
    15     5    11 1   
    16     6    39 1   
    17     7    40 1   
    18     8    41 1   
    19    11    12 1   
    20    11    42 1   
    21    12    13 1   
    22    12    15 1   
    23    12    43 1   
    24    13    14 2   
    25    13    19 1   
    26    15    16 1   
    27    15    44 1   
    28    15    45 1   
    29    16    17 1   
    30    16    18 1   
    31    16    46 1   
    32    17    47 1   
    33    17    48 1   
    34    17    49 1   
    35    18    50 1   
    36    18    51 1   
    37    18    52 1   
    38    19    20 1   
    39    19    53 1   
    40    20    21 1   
    41    20    23 1   
    42    20    54 1   
    43    21    22 2   
    44    21    31 1   
    45    23    55 1   
    46    23    56 1   
    47    23    57 1   
    48    24    25 ar  
    49    24    30 ar  
    50    24    67 1   
    51    25    26 ar  
    52    25    58 1   
    53    26    27 ar  
    54    26    59 1   
    55    27    28 1   
    56    27    29 ar  
    57    28    31 1   
    58    28    60 1   
    59    28    61 1   
    60    29    30 ar  
    61    29    62 1   
    62    30    63 1   
    63    31    64 1   
    64    32    34 1   
    65    32    65 1   
    66    32    67 1   
    67    33    67 2   
    68    34    66 1   
@<TRIPOS>SUBSTRUCTURE
     1 A6I         1 TEMP              0 ****  ****    0 ROOT
