@<TRIPOS>MOLECULE
A6I
   67    68     1     0     0
SMALL
bcc


@<TRIPOS>ATOM
      1 C21          5.5590    -1.6810     1.3630 c3         1 A6I       0.207700
      2 C22          6.9030    -2.2240     0.9850 ca         1 A6I      -0.101300
      3 C24          8.2800    -3.5570    -0.4830 ca         1 A6I      -0.134000
      4 C26          9.2820    -2.3860     1.3620 ca         1 A6I      -0.134000
      5 C19          4.1000     0.0150     0.6180 c          1 A6I       0.754100
      6 C23          7.0360    -3.0620    -0.1200 ca         1 A6I      -0.102000
      7 C25          9.4060    -3.2200     0.2590 ca         1 A6I      -0.117000
      8 C27          8.0350    -1.8890     1.7200 ca         1 A6I      -0.102000
      9 O20          5.2890    -0.5770     0.4890 os         1 A6I      -0.428900
     10 O28          3.2570    -0.3100     1.4300 o          1 A6I      -0.597000
     11 N18          3.9600     1.0340    -0.2520 ns         1 A6I      -0.543900
     12 C13          2.6910     1.6970    -0.3860 c3         1 A6I       0.052700
     13 C12          1.6150     0.7190    -0.8660 c          1 A6I       0.653100
     14 O29          1.8740    -0.1960    -1.6320 o          1 A6I      -0.605100
     15 C14          2.7990     2.8450    -1.3910 c3         1 A6I      -0.086400
     16 C15          3.8150     3.9320    -1.0330 c3         1 A6I      -0.058700
     17 C17          3.5190     4.5750     0.3180 c3         1 A6I      -0.091100
     18 C16          3.8330     4.9860    -2.1360 c3         1 A6I      -0.091100
     19 N11          0.3810     0.9980    -0.4260 ns         1 A6I      -0.558900
     20 C10         -0.7850     0.2390    -0.8010 c3         1 A6I       0.036700
     21 C09         -2.0090     1.1280    -0.6130 c          1 A6I       0.658100
     22 O31         -2.0170     2.0330     0.2090 o          1 A6I      -0.608100
     23 C30         -0.9490    -1.0290     0.0420 c3         1 A6I      -0.111100
     24 C03         -7.2700    -1.0080     0.7920 ca         1 A6I      -0.153600
     25 C04         -6.0080    -0.7960     1.3430 ca         1 A6I      -0.088500
     26 C05         -5.0750    -0.0180     0.6820 ca         1 A6I      -0.126000
     27 C06         -5.3720     0.5520    -0.5540 ca         1 A6I      -0.090300
     28 C07         -4.3630     1.4120    -1.2740 c3         1 A6I       0.141300
     29 C32         -6.6250     0.3240    -1.1100 ca         1 A6I      -0.126000
     30 C33         -7.5700    -0.4450    -0.4460 ca         1 A6I      -0.088500
     31 N08         -3.0620     0.7930    -1.3710 ns         1 A6I      -0.566900
     32 N34         -9.5300    -1.6070     1.2840 ns         1 A6I      -0.443400
     33 O01         -7.8600    -2.7380     2.3130 o          1 A6I      -0.557100
     34 O35        -10.4860    -2.2290     2.0300 oh         1 A6I      -0.392100
     35 H7           4.7870    -2.4450     1.2470 h1         1 A6I       0.057200
     36 H8           5.5530    -1.3480     2.4020 h1         1 A6I       0.057200
     37 H9           8.3710    -4.2100    -1.3410 ha         1 A6I       0.132000
     38 H10         10.1550    -2.1240     1.9460 ha         1 A6I       0.132000
     39 H20          6.1600    -3.3340    -0.6970 ha         1 A6I       0.134000
     40 H21         10.3760    -3.6100    -0.0200 ha         1 A6I       0.130000
     41 H22          7.9430    -1.2380     2.5810 ha         1 A6I       0.134000
     42 H30          4.6350     1.1310    -0.9950 hn         1 A6I       0.334500
     43 H2           2.3940     2.1000     0.5870 h1         1 A6I       0.080700
     44 H15          3.0410     2.4310    -2.3760 hc         1 A6I       0.056700
     45 H16          1.8100     3.3050    -1.4850 hc         1 A6I       0.056700
     46 H3           4.8120     3.4800    -0.9870 hc         1 A6I       0.050700
     47 H4           4.2240     5.3820     0.5240 hc         1 A6I       0.035867
     48 H5           2.5130     5.0020     0.3320 hc         1 A6I       0.035867
     49 H6           3.5930     3.8650     1.1430 hc         1 A6I       0.035867
     50 H17          2.8660     5.4880    -2.2120 hc         1 A6I       0.035867
     51 H18          4.5870     5.7490    -1.9370 hc         1 A6I       0.035867
     52 H19          4.0570     4.5450    -3.1090 hc         1 A6I       0.035867
     53 H29          0.2510     1.7200     0.2670 hn         1 A6I       0.340500
     54 H1          -0.6950    -0.0410    -1.8530 h1         1 A6I       0.078700
     55 H23         -1.0650    -0.7800     1.0970 hc         1 A6I       0.053700
     56 H24         -1.8200    -1.6020    -0.2750 hc         1 A6I       0.053700
     57 H25         -0.0720    -1.6650    -0.0660 hc         1 A6I       0.053700
     58 H11         -5.7570    -1.2340     2.3010 ha         1 A6I       0.145500
     59 H12         -4.1080     0.1480     1.1400 ha         1 A6I       0.140500
     60 H13         -4.7200     1.6360    -2.2800 h1         1 A6I       0.068700
     61 H14         -4.2520     2.3660    -0.7600 h1         1 A6I       0.068700
     62 H26         -6.8670     0.7410    -2.0800 ha         1 A6I       0.140500
     63 H27         -8.5250    -0.6230    -0.9210 ha         1 A6I       0.145500
     64 H28         -2.9640     0.0330    -2.0260 hn         1 A6I       0.320500
     65 H31         -9.8200    -0.7150     0.9120 hn         1 A6I       0.331500
     66 H32        -10.8490    -2.9250     1.4680 ho         1 A6I       0.410000
     67 C02         -8.2290    -1.8670     1.5460 c          1 A6I       0.675700
@<TRIPOS>BOND
     1     1     2 1   
     2     1     9 1   
     3     1    35 1   
     4     1    36 1   
     5     2     6 ar  
     6     2     8 ar  
     7     3     6 ar  
     8     3     7 ar  
     9     3    37 1   
    10     4     7 ar  
    11     4     8 ar  
    12     4    38 1   
    13     5     9 1   
    14     5    10 2   
    15     5    11 1   
    16     6    39 1   
    17     7    40 1   
    18     8    41 1   
    19    11    12 1   
    20    11    42 1   
    21    12    13 1   
    22    12    15 1   
    23    12    43 1   
    24    13    14 2   
    25    13    19 1   
    26    15    16 1   
    27    15    44 1   
    28    15    45 1   
    29    16    17 1   
    30    16    18 1   
    31    16    46 1   
    32    17    47 1   
    33    17    48 1   
    34    17    49 1   
    35    18    50 1   
    36    18    51 1   
    37    18    52 1   
    38    19    20 1   
    39    19    53 1   
    40    20    21 1   
    41    20    23 1   
    42    20    54 1   
    43    21    22 2   
    44    21    31 1   
    45    23    55 1   
    46    23    56 1   
    47    23    57 1   
    48    24    25 ar  
    49    24    30 ar  
    50    24    67 1   
    51    25    26 ar  
    52    25    58 1   
    53    26    27 ar  
    54    26    59 1   
    55    27    28 1   
    56    27    29 ar  
    57    28    31 1   
    58    28    60 1   
    59    28    61 1   
    60    29    30 ar  
    61    29    62 1   
    62    30    63 1   
    63    31    64 1   
    64    32    34 1   
    65    32    65 1   
    66    32    67 1   
    67    33    67 2   
    68    34    66 1   
@<TRIPOS>SUBSTRUCTURE
     1 A6I         1 TEMP              0 ****  ****    0 ROOT
