@<TRIPOS>MOLECULE
A6J
   82    85     1     0     0
SMALL
abcg2


@<TRIPOS>ATOM
      1 F1          10.5550    -0.1240    -1.5380 f          1 A6J      -0.143500
      2 C1           9.6660    -0.5410    -0.6410 ca         1 A6J       0.111500
      3 C2           8.5030     0.1750    -0.4380 ca         1 A6J       0.185500
      4 F2           8.2910     1.2840    -1.1430 f          1 A6J      -0.137000
      5 C3           9.9170    -1.7040     0.0780 ca         1 A6J       0.077100
      6 O1          11.0210    -2.4320    -0.1550 os         1 A6J      -0.334100
      7 C4          12.1490    -2.0970     0.6610 c3         1 A6J       0.146900
      8 C5           8.9750    -2.1100     1.0160 ca         1 A6J       0.111500
      9 F3           9.1890    -3.2200     1.7160 f          1 A6J      -0.143500
     10 C6           7.8200    -1.3810     1.2160 ca         1 A6J       0.185500
     11 F4           6.9290    -1.8030     2.1100 f          1 A6J      -0.137000
     12 C7           7.5630    -0.2340     0.4890 ca         1 A6J      -0.199600
     13 C8           6.3160     0.5740     0.7410 c          1 A6J       0.636700
     14 O2           6.2110     1.2620     1.7380 o          1 A6J      -0.562100
     15 N1           5.4090     0.4510    -0.2310 ns         1 A6J      -0.476900
     16 C9           4.1330     1.1240    -0.2610 c6         1 A6J       0.112700
     17 C10          3.9140     1.7560    -1.6360 c6         1 A6J       0.130300
     18 O3           4.0770     0.7480    -2.6090 oh         1 A6J      -0.709000
     19 C11          2.5180     2.3730    -1.6810 c6         1 A6J       0.134300
     20 C12          2.1970     2.9860    -3.0260 c3         1 A6J       0.171600
     21 O4           0.9770     3.6780    -2.9260 oh         1 A6J      -0.698000
     22 O5           1.5480     1.3850    -1.3950 os         1 A6J      -0.401000
     23 C13          2.9990     0.1650     0.1120 c6         1 A6J       0.147300
     24 O6           3.1920    -0.2080     1.4470 oh         1 A6J      -0.714000
     25 C14          1.6630     0.8900    -0.0920 c6         1 A6J       0.222300
     26 S1           0.3200    -0.2900     0.1860 ss         1 A6J      -0.253000
     27 C15         -1.0450     0.8910     0.3080 c6         1 A6J       0.275300
     28 C16         -2.3830     0.1570     0.3440 c6         1 A6J       0.197300
     29 O7          -2.5420    -0.6110    -0.8330 os         1 A6J      -0.580700
     30 S2          -2.8930    -2.2160    -0.6460 s6         1 A6J       1.496300
     31 O8          -1.7870    -2.7730     0.1290 o          1 A6J      -0.698867
     32 O9          -4.1750    -2.2430     0.0780 o          1 A6J      -0.698867
     33 O10         -2.9630    -2.6440    -2.0350 o          1 A6J      -0.698867
     34 O11         -0.8970     1.6440     1.4760 os         1 A6J      -0.433000
     35 C17         -1.8520     2.6880     1.5670 c6         1 A6J       0.139300
     36 C18         -1.5080     3.5430     2.7640 c3         1 A6J       0.167600
     37 O12         -0.2700     4.1680     2.5340 oh         1 A6J      -0.708000
     38 C19         -3.2640     2.1060     1.6500 c6         1 A6J       0.125300
     39 O13         -3.4480     1.3330     2.8110 oh         1 A6J      -0.696000
     40 C20         -3.4880     1.2130     0.4240 c6         1 A6J       0.097700
     41 N2          -4.7770     0.5620     0.4320 ns         1 A6J      -0.463900
     42 C21         -5.9060     1.1960     0.1230 c          1 A6J       0.624700
     43 O14         -6.0160     2.3930    -0.0740 o          1 A6J      -0.625100
     44 C22         -7.1010     0.2830     0.0250 ca         1 A6J      -0.183600
     45 C23         -8.1040     0.3290     0.9740 ca         1 A6J       0.200000
     46 F5          -7.9770     1.1370     2.0240 f          1 A6J      -0.134000
     47 C24         -9.2260    -0.4680     0.8670 ca         1 A6J       0.108500
     48 F6         -10.1680    -0.4180     1.8050 f          1 A6J      -0.149500
     49 C25         -7.2540    -0.5760    -1.0470 ca         1 A6J       0.200000
     50 F7          -6.3180    -0.6270    -1.9910 f          1 A6J      -0.134000
     51 C26         -8.3790    -1.3680    -1.1720 ca         1 A6J       0.108500
     52 F8          -8.5090    -2.1760    -2.2200 f          1 A6J      -0.149500
     53 C27         -9.3820    -1.3320    -0.2110 ca         1 A6J       0.069100
     54 O15        -10.4580    -2.1310    -0.3090 os         1 A6J      -0.332100
     55 C28        -11.5800    -1.5410    -0.9730 c3         1 A6J       0.147900
     56 H1          11.9420    -2.2690     1.7180 h1         1 A6J       0.045367
     57 H2          12.9610    -2.7470     0.3470 h1         1 A6J       0.045367
     58 H3          12.4490    -1.0580     0.5180 h1         1 A6J       0.045367
     59 H4           5.6010    -0.1820    -0.9930 hn         1 A6J       0.328500
     60 H5           4.1540     1.9300     0.4770 h1         1 A6J       0.095700
     61 H6           4.6550     2.5540    -1.7610 h1         1 A6J       0.038700
     62 H7           4.4650     1.1290    -3.4010 ho         1 A6J       0.501000
     63 H8           2.4820     3.1720    -0.9220 h1         1 A6J       0.055700
     64 H9           3.0260     3.6550    -3.2930 h1         1 A6J       0.021200
     65 H10          2.1560     2.1990    -3.7890 h1         1 A6J       0.021200
     66 H11          0.7940     4.0750    -3.7830 ho         1 A6J       0.499000
     67 H12          3.0300    -0.7030    -0.5640 h1         1 A6J       0.066700
     68 H13          2.5850    -0.9230     1.6650 ho         1 A6J       0.530000
     69 H14          1.5780     1.7010     0.6460 h2         1 A6J       0.080700
     70 H15         -1.0020     1.5390    -0.5800 h2         1 A6J       0.078700
     71 H16         -2.4020    -0.4690     1.2440 h1         1 A6J       0.088700
     72 H17         -1.8060     3.3150     0.6610 h1         1 A6J       0.053700
     73 H18         -2.3160     4.2760     2.8930 h1         1 A6J       0.024700
     74 H19         -1.4900     2.9210     3.6670 h1         1 A6J       0.024700
     75 H20         -0.0610     4.7020     3.3070 ho         1 A6J       0.494000
     76 H21         -3.9770     2.9370     1.6060 h1         1 A6J       0.051700
     77 H22         -3.9440     1.8440     3.4540 ho         1 A6J       0.494000
     78 H23         -3.4170     1.8480    -0.4670 h1         1 A6J       0.073700
     79 H24         -4.7960    -0.4510     0.5180 hn         1 A6J       0.387500
     80 H25        -11.3400    -1.2830    -2.0060 h1         1 A6J       0.040033
     81 H26        -12.3720    -2.2850    -0.9670 h1         1 A6J       0.040033
     82 H27        -11.9270    -0.6470    -0.4520 h1         1 A6J       0.040033
@<TRIPOS>BOND
     1     1     2 1   
     2     2     3 ar  
     3     2     5 ar  
     4     3     4 1   
     5     3    12 ar  
     6     5     6 1   
     7     5     8 ar  
     8     6     7 1   
     9     7    56 1   
    10     7    57 1   
    11     7    58 1   
    12     8     9 1   
    13     8    10 ar  
    14    10    11 1   
    15    10    12 ar  
    16    12    13 1   
    17    13    14 2   
    18    13    15 1   
    19    15    16 1   
    20    15    59 1   
    21    16    17 1   
    22    16    23 1   
    23    16    60 1   
    24    17    18 1   
    25    17    19 1   
    26    17    61 1   
    27    18    62 1   
    28    19    20 1   
    29    19    22 1   
    30    19    63 1   
    31    20    21 1   
    32    20    64 1   
    33    20    65 1   
    34    21    66 1   
    35    22    25 1   
    36    23    24 1   
    37    23    25 1   
    38    23    67 1   
    39    24    68 1   
    40    25    26 1   
    41    25    69 1   
    42    26    27 1   
    43    27    28 1   
    44    27    34 1   
    45    27    70 1   
    46    28    29 1   
    47    28    40 1   
    48    28    71 1   
    49    29    30 1   
    50    30    31 1   
    51    30    32 1   
    52    30    33 1   
    53    34    35 1   
    54    35    36 1   
    55    35    38 1   
    56    35    72 1   
    57    36    37 1   
    58    36    73 1   
    59    36    74 1   
    60    37    75 1   
    61    38    39 1   
    62    38    40 1   
    63    38    76 1   
    64    39    77 1   
    65    40    41 1   
    66    40    78 1   
    67    41    42 1   
    68    41    79 1   
    69    42    43 2   
    70    42    44 1   
    71    44    45 ar  
    72    44    49 ar  
    73    45    46 1   
    74    45    47 ar  
    75    47    48 1   
    76    47    53 ar  
    77    49    50 1   
    78    49    51 ar  
    79    51    52 1   
    80    51    53 ar  
    81    53    54 1   
    82    54    55 1   
    83    55    80 1   
    84    55    81 1   
    85    55    82 1   
@<TRIPOS>SUBSTRUCTURE
     1 A6J         1 TEMP              0 ****  ****    0 ROOT
