@<TRIPOS>MOLECULE
A6J
   82    85     1     0     0
SMALL
No Charge or Current Charge


@<TRIPOS>ATOM
      1 F1          10.1160    -1.0210    -2.2100 f          1 A6J      -0.143500
      2 C1           9.6200    -0.9110    -0.9530 ca         1 A6J       0.111500
      3 C2           8.3990    -0.2400    -0.7520 ca         1 A6J       0.185500
      4 F2           7.7880     0.2970    -1.8330 f          1 A6J      -0.137000
      5 C3          10.3380    -1.4630     0.1250 ca         1 A6J       0.077100
      6 O1          11.5350    -2.1080    -0.1760 os         1 A6J      -0.334100
      7 C4          12.3970    -2.7240     0.7980 c3         1 A6J       0.146900
      8 C5           9.8000    -1.3240     1.4320 ca         1 A6J       0.111500
      9 F3          10.4270    -1.8320     2.5210 f          1 A6J      -0.143500
     10 C6           8.5780    -0.6490     1.6310 ca         1 A6J       0.185500
     11 F4           8.0940    -0.5730     2.8930 f          1 A6J      -0.137000
     12 C7           7.8510    -0.0970     0.5480 ca         1 A6J      -0.199600
     13 C8           6.5440     0.6230     0.8020 c          1 A6J       0.636700
     14 O2           6.2980     1.1820     1.8620 o          1 A6J      -0.562100
     15 N1           5.6470     0.6740    -0.2400 ns         1 A6J      -0.476900
     16 C9           4.2860     1.2490    -0.1990 c6         1 A6J       0.112700
     17 C10          3.9750     1.9790    -1.5430 c6         1 A6J       0.130300
     18 O3           4.1950     1.0750    -2.6530 oh         1 A6J      -0.709000
     19 C11          2.5090     2.5250    -1.4900 c6         1 A6J       0.134300
     20 C12          2.0800     3.2880    -2.7850 c3         1 A6J       0.171600
     21 O4           0.7440     3.8190    -2.7100 oh         1 A6J      -0.698000
     22 O5           1.5820     1.4380    -1.2600 os         1 A6J      -0.401000
     23 C13          3.2040     0.1480     0.0760 c6         1 A6J       0.147300
     24 O6           3.4310    -0.4990     1.3500 oh         1 A6J      -0.714000
     25 C14          1.7740     0.7780     0.0070 c6         1 A6J       0.222300
     26 S1           0.4280    -0.4690     0.2130 ss         1 A6J      -0.253000
     27 C15         -1.0080     0.6930     0.2180 c6         1 A6J       0.275300
     28 C16         -2.4020    -0.0160     0.2430 c6         1 A6J       0.197300
     29 O7          -2.5670    -0.8720    -0.9140 os         1 A6J      -0.580700
     30 S2          -3.0830    -2.4110    -0.6640 s6         1 A6J       1.496300
     31 O8          -2.0130    -3.0280     0.1270 o          1 A6J      -0.698867
     32 O9          -4.3440    -2.2290     0.0690 o          1 A6J      -0.698867
     33 O10         -3.2360    -2.9580    -2.0190 o          1 A6J      -0.698867
     34 O11         -0.8680     1.5520     1.3720 os         1 A6J      -0.433000
     35 C17         -1.8440     2.6200     1.4200 c6         1 A6J       0.139300
     36 C18         -1.5100     3.5570     2.6270 c3         1 A6J       0.167600
     37 O12         -0.1930     4.1370     2.5460 oh         1 A6J      -0.708000
     38 C19         -3.2900     2.0310     1.4880 c6         1 A6J       0.125300
     39 O13         -3.5220     1.2970     2.7110 oh         1 A6J      -0.696000
     40 C20         -3.5010     1.1040     0.2460 c6         1 A6J       0.097700
     41 N2          -4.8670     0.5330     0.1900 ns         1 A6J      -0.463900
     42 C21         -6.0290     1.2390    -0.0220 c          1 A6J       0.624700
     43 O14         -6.0360     2.4590    -0.0790 o          1 A6J      -0.625100
     44 C22         -7.2700     0.4270    -0.2160 ca         1 A6J      -0.183600
     45 C23         -8.4460     0.7560     0.4860 ca         1 A6J       0.200000
     46 F5          -8.4390     1.7810     1.3720 f          1 A6J      -0.134000
     47 C24         -9.6300     0.0100     0.3160 ca         1 A6J       0.108500
     48 F6         -10.7180     0.3730     1.0370 f          1 A6J      -0.149500
     49 C25         -7.3050    -0.6490    -1.1240 ca         1 A6J       0.200000
     50 F7          -6.2220    -0.9350    -1.8820 f          1 A6J      -0.134000
     51 C26         -8.4830    -1.3970    -1.3060 ca         1 A6J       0.108500
     52 F8          -8.4880    -2.4220    -2.1930 f          1 A6J      -0.149500
     53 C27         -9.6580    -1.0880    -0.5900 ca         1 A6J       0.069100
     54 O15        -10.7740    -1.8850    -0.8340 os         1 A6J      -0.332100
     55 C28        -12.0530    -1.7130    -0.1970 c3         1 A6J       0.147900
     56 H1          11.8760    -3.5320     1.3280 h1         1 A6J       0.045367
     57 H2          13.2740    -3.1600     0.3040 h1         1 A6J       0.045367
     58 H3          12.7550    -1.9870     1.5280 h1         1 A6J       0.045367
     59 H4           5.9310     0.2310    -1.1050 hn         1 A6J       0.328500
     60 H5           4.2390     1.9910     0.6110 h1         1 A6J       0.095700
     61 H6           4.6600     2.8370    -1.6270 h1         1 A6J       0.038700
     62 H7           4.2730     1.6200    -3.4700 ho         1 A6J       0.501000
     63 H8           2.4280     3.2340    -0.6530 h1         1 A6J       0.055700
     64 H9           2.7960     4.1030    -2.9550 h1         1 A6J       0.021200
     65 H10          2.1570     2.6000    -3.6380 h1         1 A6J       0.021200
     66 H11          0.5450     4.2200    -3.5870 ho         1 A6J       0.499000
     67 H12          3.2720    -0.5980    -0.7300 h1         1 A6J       0.066700
     68 H13          2.7570    -1.2130     1.4340 ho         1 A6J       0.530000
     69 H14          1.6580     1.5050     0.8250 h2         1 A6J       0.080700
     70 H15         -0.9270     1.2900    -0.7020 h2         1 A6J       0.078700
     71 H16         -2.4660    -0.6070     1.1700 h1         1 A6J       0.088700
     72 H17         -1.7500     3.2200     0.5020 h1         1 A6J       0.053700
     73 H18         -2.2660     4.3520     2.6610 h1         1 A6J       0.024700
     74 H19         -1.6040     2.9770     3.5550 h1         1 A6J       0.024700
     75 H20         -0.0500     4.6380     3.3820 ho         1 A6J       0.494000
     76 H21         -3.9930     2.8750     1.4250 h1         1 A6J       0.051700
     77 H22         -4.4800     1.0740     2.7360 ho         1 A6J       0.494000
     78 H23         -3.3680     1.7110    -0.6620 h1         1 A6J       0.073700
     79 H24         -4.9480    -0.4850     0.1820 hn         1 A6J       0.387500
     80 H25        -12.4730    -0.7250    -0.4220 h1         1 A6J       0.040033
     81 H26        -12.7590    -2.4690    -0.5600 h1         1 A6J       0.040033
     82 H27        -11.9680    -1.8290     0.8910 h1         1 A6J       0.040033
@<TRIPOS>BOND
     1     1     2 1   
     2     2     3 ar  
     3     2     5 ar  
     4     3     4 1   
     5     3    12 ar  
     6     5     6 1   
     7     5     8 ar  
     8     6     7 1   
     9     7    56 1   
    10     7    57 1   
    11     7    58 1   
    12     8     9 1   
    13     8    10 ar  
    14    10    11 1   
    15    10    12 ar  
    16    12    13 1   
    17    13    14 2   
    18    13    15 1   
    19    15    16 1   
    20    15    59 1   
    21    16    17 1   
    22    16    23 1   
    23    16    60 1   
    24    17    18 1   
    25    17    19 1   
    26    17    61 1   
    27    18    62 1   
    28    19    20 1   
    29    19    22 1   
    30    19    63 1   
    31    20    21 1   
    32    20    64 1   
    33    20    65 1   
    34    21    66 1   
    35    22    25 1   
    36    23    24 1   
    37    23    25 1   
    38    23    67 1   
    39    24    68 1   
    40    25    26 1   
    41    25    69 1   
    42    26    27 1   
    43    27    28 1   
    44    27    34 1   
    45    27    70 1   
    46    28    29 1   
    47    28    40 1   
    48    28    71 1   
    49    29    30 1   
    50    30    31 1   
    51    30    32 1   
    52    30    33 1   
    53    34    35 1   
    54    35    36 1   
    55    35    38 1   
    56    35    72 1   
    57    36    37 1   
    58    36    73 1   
    59    36    74 1   
    60    37    75 1   
    61    38    39 1   
    62    38    40 1   
    63    38    76 1   
    64    39    77 1   
    65    40    41 1   
    66    40    78 1   
    67    41    42 1   
    68    41    79 1   
    69    42    43 2   
    70    42    44 1   
    71    44    45 ar  
    72    44    49 ar  
    73    45    46 1   
    74    45    47 ar  
    75    47    48 1   
    76    47    53 ar  
    77    49    50 1   
    78    49    51 ar  
    79    51    52 1   
    80    51    53 ar  
    81    53    54 1   
    82    54    55 1   
    83    55    80 1   
    84    55    81 1   
    85    55    82 1   
@<TRIPOS>SUBSTRUCTURE
     1 A6J         1 TEMP              0 ****  ****    0 ROOT
