@<TRIPOS>MOLECULE
A6K
   51    53     1     0     0
SMALL
No Charge or Current Charge


@<TRIPOS>ATOM
      1 Cl1         -9.5920    -1.0380     0.0330 cl         1 A6K      -0.213000
      2 C18         -7.9600    -0.3920     0.1530 ca         1 A6K       0.119000
      3 C17         -7.0050    -1.0440     0.9480 ca         1 A6K      -0.102500
      4 C16         -5.7000    -0.5280     1.0440 ca         1 A6K      -0.091000
      5 C19         -7.6160     0.7760    -0.5460 ca         1 A6K      -0.102500
      6 C20         -6.3110     1.2930    -0.4500 ca         1 A6K      -0.091000
      7 C15         -5.3440     0.6420     0.3430 ca         1 A6K      -0.057300
      8 C14         -3.9290     1.2040     0.4580 c3         1 A6K      -0.026100
      9 C           -2.8580     0.3530    -0.2760 c3         1 A6K       0.177500
     10 N           -3.1190     0.3150    -1.7270 n8         1 A6K      -0.991200
     11 C1          -1.4300     0.8810    -0.0220 c3         1 A6K      -0.200400
     12 C2          -0.2770    -0.0650    -0.4010 c          1 A6K       0.600100
     13 O           -0.4830    -1.2100    -0.7830 o          1 A6K      -0.609100
     14 N1           1.0410     0.4200    -0.2960 n          1 A6K      -0.422800
     15 C7           2.2210    -0.3970    -0.6560 c5         1 A6K       0.109000
     16 C6           3.3220     0.6970    -0.7290 c5         1 A6K      -0.035400
     17 C4           2.9270     1.6360     0.4480 c5         1 A6K      -0.077700
     18 C5           3.7000     2.9730     0.4860 c3         1 A6K       0.170600
     19 O1           3.2350     3.7830     1.5720 oh         1 A6K      -0.664000
     20 C3           1.3990     1.7730     0.1970 c5         1 A6K       0.112000
     21 C8           4.6990     0.0700    -0.4630 ca         1 A6K      -0.077300
     22 C13          5.7300     0.2640    -1.4060 ca         1 A6K      -0.095500
     23 C12          7.0070    -0.2870    -1.2010 ca         1 A6K      -0.101000
     24 C11          7.2700    -1.0400    -0.0480 ca         1 A6K       0.123000
     25 Cl           8.8670    -1.7290     0.2100 cl         1 A6K      -0.200000
     26 C10          6.2570    -1.2420     0.9010 ca         1 A6K      -0.101000
     27 C9           4.9790    -0.6910     0.6960 ca         1 A6K      -0.095500
     28 H17         -7.2740    -1.9470     1.4890 ha         1 A6K       0.126500
     29 H19         -8.3570     1.2800    -1.1610 ha         1 A6K       0.126500
     30 H16         -4.9660    -1.0370     1.6650 ha         1 A6K       0.113000
     31 H20         -6.0520     2.1980    -0.9960 ha         1 A6K       0.113000
     32 H141        -3.8930     2.2340     0.0810 hc         1 A6K       0.044200
     33 H142        -3.6610     1.2670     1.5200 hc         1 A6K       0.044200
     34 H           -2.9260    -0.6720     0.1200 h1         1 A6K       0.084700
     35 HN1         -2.9290     1.2400    -2.1260 hn         1 A6K       0.399500
     36 HN2         -2.4160    -0.2910    -2.1650 hn         1 A6K       0.399500
     37 H11C        -1.2610     1.8600    -0.4840 hc         1 A6K       0.062700
     38 H12C        -1.2890     1.1250     1.0380 hc         1 A6K       0.062700
     39 H71C         2.4100    -1.1510     0.1180 h1         1 A6K       0.062700
     40 H72C         2.0960    -0.9120    -1.6180 h1         1 A6K       0.062700
     41 H31C         1.1810     2.5310    -0.5670 h1         1 A6K       0.052200
     42 H32C         0.8640     2.0420     1.1180 h1         1 A6K       0.052200
     43 H6           3.2760     1.2270    -1.6890 hc         1 A6K       0.060700
     44 H4           3.0890     1.1510     1.4170 hc         1 A6K       0.074700
     45 H51C         4.7720     2.7620     0.6020 h1         1 A6K       0.026200
     46 H52C         3.5620     3.4970    -0.4690 h1         1 A6K       0.026200
     47 H1           3.7720     4.6070     1.5650 ho         1 A6K       0.449000
     48 H13          5.5430     0.8470    -2.3050 ha         1 A6K       0.118000
     49 H9           4.2120    -0.8610     1.4480 ha         1 A6K       0.118000
     50 H12          7.7930    -0.1290    -1.9360 ha         1 A6K       0.132000
     51 H10          6.4610    -1.8250     1.7950 ha         1 A6K       0.132000
@<TRIPOS>BOND
     1     1     2 1   
     2     2     3 ar  
     3     2     5 ar  
     4     3     4 ar  
     5     3    28 1   
     6     4     7 ar  
     7     4    30 1   
     8     5     6 ar  
     9     5    29 1   
    10     6     7 ar  
    11     6    31 1   
    12     7     8 1   
    13     8     9 1   
    14     8    32 1   
    15     8    33 1   
    16     9    10 1   
    17     9    11 1   
    18     9    34 1   
    19    10    35 1   
    20    10    36 1   
    21    11    12 1   
    22    11    37 1   
    23    11    38 1   
    24    12    13 2   
    25    12    14 1   
    26    14    15 1   
    27    14    20 1   
    28    15    16 1   
    29    15    39 1   
    30    15    40 1   
    31    16    17 1   
    32    16    21 1   
    33    16    43 1   
    34    17    18 1   
    35    17    20 1   
    36    17    44 1   
    37    18    19 1   
    38    18    45 1   
    39    18    46 1   
    40    19    47 1   
    41    20    41 1   
    42    20    42 1   
    43    21    22 ar  
    44    21    27 ar  
    45    22    23 ar  
    46    22    48 1   
    47    23    24 ar  
    48    23    50 1   
    49    24    25 1   
    50    24    26 ar  
    51    26    27 ar  
    52    26    51 1   
    53    27    49 1   
@<TRIPOS>SUBSTRUCTURE
     1 A6K         1 TEMP              0 ****  ****    0 ROOT
