@<TRIPOS>MOLECULE
A6K
   51    53     1     0     0
SMALL
bcc


@<TRIPOS>ATOM
      1 CL1         -9.3900    -0.8470    -0.6040 cl         1 A6K      -0.121400
      2 C18         -7.7930    -0.2690    -0.2420 ca         1 A6K       0.027400
      3 C17         -7.0460    -0.8980     0.7410 ca         1 A6K      -0.120500
      4 C16         -5.7730    -0.4250     1.0230 ca         1 A6K      -0.109000
      5 C19         -7.2860     0.8180    -0.9380 ca         1 A6K      -0.120500
      6 C20         -6.0090     1.2710    -0.6410 ca         1 A6K      -0.109000
      7 C15         -5.2330     0.6630     0.3410 ca         1 A6K      -0.057300
      8 C14         -3.8420     1.1360     0.6440 c3         1 A6K      -0.026100
      9 C           -2.7690     0.2910    -0.0520 c3         1 A6K       0.177500
     10 N           -2.9670     0.3270    -1.4890 n8         1 A6K      -0.880800
     11 C1          -1.3830     0.7550     0.4020 c3         1 A6K      -0.200400
     12 C2          -0.2660    -0.1420    -0.0890 c          1 A6K       0.667100
     13 O           -0.4740    -1.2910    -0.4690 o          1 A6K      -0.609100
     14 N1           0.9740     0.3710    -0.0670 n          1 A6K      -0.489800
     15 C7           2.1240    -0.4070    -0.5020 c5         1 A6K       0.108000
     16 C6           3.2410     0.6330    -0.5910 c5         1 A6K      -0.035400
     17 C4           2.8630     1.6360     0.5060 c5         1 A6K      -0.077700
     18 C5           3.5490     2.9740     0.3480 c3         1 A6K       0.147400
     19 O1           3.0950     3.8350     1.3670 oh         1 A6K      -0.601800
     20 C3           1.3430     1.7040     0.3960 c5         1 A6K       0.112000
     21 C8           4.6290     0.0670    -0.4870 ca         1 A6K      -0.077300
     22 C13          5.5400     0.2410    -1.5240 ca         1 A6K      -0.113500
     23 C12          6.8300    -0.2650    -1.4480 ca         1 A6K      -0.119000
     24 C11          7.2130    -0.9560    -0.3110 ca         1 A6K       0.031400
     25 CL           8.8210    -1.5980    -0.2020 cl         1 A6K      -0.108400
     26 C10          6.3300    -1.1440     0.7420 ca         1 A6K      -0.119000
     27 C9           5.0470    -0.6310     0.6460 ca         1 A6K      -0.113500
     28 H17         -7.4490    -1.7430     1.2830 ha         1 A6K       0.144500
     29 H19         -7.8760     1.3050    -1.7020 ha         1 A6K       0.144500
     30 H16         -5.1910    -0.9150     1.7950 ha         1 A6K       0.131000
     31 H20         -5.6160     2.1200    -1.1860 ha         1 A6K       0.131000
     32 H141        -3.7290     2.1830     0.3440 hc         1 A6K       0.044200
     33 H142        -3.6690     1.1010     1.7230 hc         1 A6K       0.044200
     34 H           -2.9070    -0.7460     0.2680 h1         1 A6K       0.084700
     35 HN1         -2.7740     1.2580    -1.8420 hn         1 A6K       0.344300
     36 HN2         -2.3030    -0.2910    -1.9380 hn         1 A6K       0.344300
     37 H11C        -1.2240     1.7880     0.0760 hc         1 A6K       0.062700
     38 H12C        -1.3290     0.7770     1.4970 hc         1 A6K       0.062700
     39 H71C         2.3600    -1.1890     0.2260 h1         1 A6K       0.062700
     40 H72C         1.9390    -0.8920    -1.4600 h1         1 A6K       0.062700
     41 H31C         1.0390     2.4670    -0.3290 h1         1 A6K       0.052200
     42 H32C         0.8730     1.9420     1.3500 h1         1 A6K       0.052200
     43 H6           3.1520     1.1390    -1.5590 hc         1 A6K       0.060700
     44 H4           3.1280     1.2100     1.4810 hc         1 A6K       0.074700
     45 H51C         4.6360     2.8310     0.3940 h1         1 A6K       0.026200
     46 H52C         3.3200     3.3750    -0.6490 h1         1 A6K       0.026200
     47 H1           3.5150     4.6920     1.2470 ho         1 A6K       0.410000
     48 H13          5.2420     0.7810    -2.4140 ha         1 A6K       0.136000
     49 H9           4.3690    -0.7790     1.4780 ha         1 A6K       0.136000
     50 H12          7.5240    -0.1190    -2.2640 ha         1 A6K       0.150000
     51 H10          6.6370    -1.6840     1.6270 ha         1 A6K       0.150000
@<TRIPOS>BOND
     1     1     2 1   
     2     2     3 ar  
     3     2     5 ar  
     4     3     4 ar  
     5     3    28 1   
     6     4     7 ar  
     7     4    30 1   
     8     5     6 ar  
     9     5    29 1   
    10     6     7 ar  
    11     6    31 1   
    12     7     8 1   
    13     8     9 1   
    14     8    32 1   
    15     8    33 1   
    16     9    10 1   
    17     9    11 1   
    18     9    34 1   
    19    10    35 1   
    20    10    36 1   
    21    11    12 1   
    22    11    37 1   
    23    11    38 1   
    24    12    13 2   
    25    12    14 1   
    26    14    15 1   
    27    14    20 1   
    28    15    16 1   
    29    15    39 1   
    30    15    40 1   
    31    16    17 1   
    32    16    21 1   
    33    16    43 1   
    34    17    18 1   
    35    17    20 1   
    36    17    44 1   
    37    18    19 1   
    38    18    45 1   
    39    18    46 1   
    40    19    47 1   
    41    20    41 1   
    42    20    42 1   
    43    21    22 ar  
    44    21    27 ar  
    45    22    23 ar  
    46    22    48 1   
    47    23    24 ar  
    48    23    50 1   
    49    24    25 1   
    50    24    26 ar  
    51    26    27 ar  
    52    26    51 1   
    53    27    49 1   
@<TRIPOS>SUBSTRUCTURE
     1 A6K         1 TEMP              0 ****  ****    0 ROOT
