@<TRIPOS>MOLECULE
A6L
   65    64     1     0     0
SMALL
bcc


@<TRIPOS>ATOM
      1 CA          -4.5300     0.0470    -0.0450 c3         1 A6L      -0.138400
      2 C           -5.9490     0.3880     0.3190 c          1 A6L       0.642100
      3 OXT         -6.7750    -0.6180     0.0480 os         1 A6L      -0.411900
      4 C3          -3.5420     1.1730     0.2160 c3         1 A6L      -0.067400
      5 C4          -2.1280     0.7920    -0.2040 c3         1 A6L      -0.076400
      6 C5          -1.1140     1.9020     0.0450 c3         1 A6L      -0.074400
      7 C6           0.2930     1.5320    -0.4060 c3         1 A6L      -0.075400
      8 C7           1.3210     2.6260    -0.1410 c3         1 A6L      -0.072400
      9 C8           2.7150     2.2560    -0.6490 c3         1 A6L      -0.044200
     10 C9           3.7210     3.3360    -0.4040 c2         1 A6L      -0.165200
     11 C10          4.8750     3.2330     0.2540 c2         1 A6L      -0.166200
     12 C11          5.4580     2.0010     0.8750 c3         1 A6L      -0.043200
     13 C12          6.6340     1.4490     0.0650 c3         1 A6L      -0.072400
     14 C13          7.2450     0.1970     0.6820 c3         1 A6L      -0.075400
     15 C14          8.4120    -0.3600    -0.1240 c3         1 A6L      -0.074400
     16 C15          8.9920    -1.6410     0.4620 c3         1 A6L      -0.074400
     17 C16         10.1580    -2.2000    -0.3460 c3         1 A6L      -0.075400
     18 C17         10.7250    -3.4920     0.2290 c3         1 A6L      -0.075400
     19 C18         11.8850    -4.0480    -0.5870 c3         1 A6L      -0.088100
     20 O           -6.3150     1.4330     0.7940 o          1 A6L      -0.539000
     21 H1          -4.2390    -0.8530     0.5060 hc         1 A6L       0.073700
     22 H2          -4.5100    -0.2410    -1.1010 hc         1 A6L       0.073700
     23 H4          -3.8520     2.0710    -0.3250 hc         1 A6L       0.053700
     24 H5          -3.5490     1.4330     1.2780 hc         1 A6L       0.053700
     25 H6          -1.8150    -0.1110     0.3320 hc         1 A6L       0.037700
     26 H7          -2.1230     0.5300    -1.2680 hc         1 A6L       0.037700
     27 H8          -1.4350     2.8110    -0.4740 hc         1 A6L       0.040200
     28 H9          -1.1030     2.1500     1.1120 hc         1 A6L       0.040200
     29 H10          0.6080     0.6120     0.0990 hc         1 A6L       0.037200
     30 H11          0.2800     1.3000    -1.4760 hc         1 A6L       0.037200
     31 H12          0.9960     3.5570    -0.6170 hc         1 A6L       0.040200
     32 H13          1.3680     2.8320     0.9330 hc         1 A6L       0.040200
     33 H14          3.0310     1.3150    -0.1940 hc         1 A6L       0.044200
     34 H15          2.6520     2.0660    -1.7270 hc         1 A6L       0.044200
     35 H16          3.4590     4.3090    -0.8130 ha         1 A6L       0.115000
     36 H17          5.4930     4.1250     0.3300 ha         1 A6L       0.115000
     37 H18          5.8060     2.2380     1.8860 hc         1 A6L       0.043200
     38 H19          4.7010     1.2200     0.9860 hc         1 A6L       0.043200
     39 H20          6.2910     1.2250    -0.9500 hc         1 A6L       0.039700
     40 H21          7.4020     2.2230    -0.0350 hc         1 A6L       0.039700
     41 H22          7.5780     0.4180     1.7020 hc         1 A6L       0.037200
     42 H23          6.4700    -0.5720     0.7750 hc         1 A6L       0.037200
     43 H24          8.0840    -0.5500    -1.1520 hc         1 A6L       0.037700
     44 H25          9.2000     0.3990    -0.1930 hc         1 A6L       0.037700
     45 H26          9.3200    -1.4550     1.4910 hc         1 A6L       0.036700
     46 H27          8.2030    -2.3980     0.5270 hc         1 A6L       0.036700
     47 H28          9.8330    -2.3750    -1.3780 hc         1 A6L       0.036700
     48 H29         10.9540    -1.4480    -0.4030 hc         1 A6L       0.036700
     49 H30         11.0530    -3.3180     1.2580 hc         1 A6L       0.036700
     50 H31          9.9290    -4.2410     0.2870 hc         1 A6L       0.036700
     51 H32         12.2730    -4.9700    -0.1520 hc         1 A6L       0.031367
     52 H33         11.5760    -4.2710    -1.6100 hc         1 A6L       0.031367
     53 H34         12.7090    -3.3350    -0.6400 hc         1 A6L       0.031367
     54 C1          -8.1630    -0.4330     0.3190 c3         1 A6L       0.105400
     55 C2          -8.8920    -1.6900    -0.1250 c3         1 A6L       0.141100
     56 C19        -10.3650    -1.5640     0.2310 c3         1 A6L       0.105400
     57 O2         -11.0090    -2.7780    -0.0690 oh         1 A6L      -0.579800
     58 O1          -8.6860    -1.9690    -1.4880 oh         1 A6L      -0.563800
     59 H3          -8.3200    -0.2620     1.3870 h1         1 A6L       0.050700
     60 H35         -8.5410     0.4420    -0.2200 h1         1 A6L       0.050700
     61 H36         -8.4780    -2.5450     0.4210 h1         1 A6L       0.098700
     62 H37        -10.4520    -1.3080     1.2950 h1         1 A6L       0.021200
     63 H38        -10.7990    -0.7240    -0.3320 h1         1 A6L       0.021200
     64 H39        -11.9460    -2.6720     0.1200 ho         1 A6L       0.406000
     65 H40         -9.0880    -1.2680    -2.0110 ho         1 A6L       0.397000
@<TRIPOS>BOND
     1     1     2 1   
     2     1     4 1   
     3     1    21 1   
     4     1    22 1   
     5     2     3 1   
     6     2    20 2   
     7     3    54 1   
     8     4     5 1   
     9     4    23 1   
    10     4    24 1   
    11     5     6 1   
    12     5    25 1   
    13     5    26 1   
    14     6     7 1   
    15     6    27 1   
    16     6    28 1   
    17     7     8 1   
    18     7    29 1   
    19     7    30 1   
    20     8     9 1   
    21     8    31 1   
    22     8    32 1   
    23     9    10 1   
    24     9    33 1   
    25     9    34 1   
    26    10    11 2   
    27    10    35 1   
    28    11    12 1   
    29    11    36 1   
    30    12    13 1   
    31    12    37 1   
    32    12    38 1   
    33    13    14 1   
    34    13    39 1   
    35    13    40 1   
    36    14    15 1   
    37    14    41 1   
    38    14    42 1   
    39    15    16 1   
    40    15    43 1   
    41    15    44 1   
    42    16    17 1   
    43    16    45 1   
    44    16    46 1   
    45    17    18 1   
    46    17    47 1   
    47    17    48 1   
    48    18    19 1   
    49    18    49 1   
    50    18    50 1   
    51    19    51 1   
    52    19    52 1   
    53    19    53 1   
    54    54    55 1   
    55    54    59 1   
    56    54    60 1   
    57    55    56 1   
    58    55    58 1   
    59    55    61 1   
    60    56    57 1   
    61    56    62 1   
    62    56    63 1   
    63    57    64 1   
    64    58    65 1   
@<TRIPOS>SUBSTRUCTURE
     1 A6L         1 TEMP              0 ****  ****    0 ROOT
