@<TRIPOS>MOLECULE
A6L
   65    64     1     0     0
SMALL
No Charge or Current Charge


@<TRIPOS>ATOM
      1 CA          -3.8840    -1.6090    -0.1540 c3         1 A6L      -0.138400
      2 C           -5.1670    -1.6780     0.6770 c          1 A6L       0.593100
      3 OXT         -6.2290    -1.1060     0.0250 os         1 A6L      -0.435100
      4 C3          -3.0320    -0.3760     0.2290 c3         1 A6L      -0.067400
      5 C4          -1.7290    -0.2640    -0.5930 c3         1 A6L      -0.076400
      6 C5          -0.8770     0.9660    -0.2100 c3         1 A6L      -0.074400
      7 C6           0.4260     1.0780    -1.0310 c3         1 A6L      -0.075400
      8 C7           1.2780     2.3080    -0.6480 c3         1 A6L      -0.072400
      9 C8           2.5820     2.4190    -1.4640 c3         1 A6L      -0.044200
     10 C9           3.4060     3.6280    -1.0620 c2         1 A6L      -0.215200
     11 C10          4.4370     3.6490    -0.1990 c2         1 A6L      -0.216200
     12 C11          4.9820     2.4760     0.5960 c3         1 A6L      -0.043200
     13 C12          6.1960     1.8220    -0.0940 c3         1 A6L      -0.072400
     14 C13          6.7620     0.6170     0.6900 c3         1 A6L      -0.075400
     15 C14          7.9760    -0.0390    -0.0040 c3         1 A6L      -0.074400
     16 C15          8.5410    -1.2440     0.7780 c3         1 A6L      -0.074400
     17 C16          9.7550    -1.9000     0.0840 c3         1 A6L      -0.075400
     18 C17         10.3200    -3.1060     0.8670 c3         1 A6L      -0.075400
     19 C18         11.5310    -3.7610     0.1740 c3         1 A6L      -0.088100
     20 O           -5.2270    -2.1790     1.7920 o          1 A6L      -0.490000
     21 H1          -3.2970    -2.5190     0.0170 hc         1 A6L       0.073700
     22 H2          -4.1480    -1.5120    -1.2140 hc         1 A6L       0.073700
     23 H4          -3.6290     0.5340     0.0850 hc         1 A6L       0.053700
     24 H5          -2.7820    -0.4270     1.2960 hc         1 A6L       0.053700
     25 H6          -1.1320    -1.1740    -0.4480 hc         1 A6L       0.037700
     26 H7          -1.9790    -0.2110    -1.6600 hc         1 A6L       0.037700
     27 H8          -1.4730     1.8760    -0.3550 hc         1 A6L       0.040200
     28 H9          -0.6270     0.9140     0.8570 hc         1 A6L       0.040200
     29 H10          1.0220     0.1680    -0.8870 hc         1 A6L       0.037200
     30 H11          0.1760     1.1310    -2.0990 hc         1 A6L       0.037200
     31 H12          0.6850     3.2190    -0.7930 hc         1 A6L       0.040200
     32 H13          1.5280     2.2550     0.4190 hc         1 A6L       0.040200
     33 H14          3.1620     1.4970    -1.3400 hc         1 A6L       0.044200
     34 H15          2.3380     2.4790    -2.5320 hc         1 A6L       0.044200
     35 H16          3.1060     4.5510    -1.5630 ha         1 A6L       0.165000
     36 H17          4.9570     4.5900    -0.0040 ha         1 A6L       0.165000
     37 H18          5.2720     2.8140     1.5990 hc         1 A6L       0.043200
     38 H19          4.2050     1.7170     0.7470 hc         1 A6L       0.043200
     39 H20          5.9020     1.4930    -1.0980 hc         1 A6L       0.039700
     40 H21          6.9850     2.5740    -0.2210 hc         1 A6L       0.039700
     41 H22          7.0560     0.9470     1.6940 hc         1 A6L       0.037200
     42 H23          5.9720    -0.1330     0.8170 hc         1 A6L       0.037200
     43 H24          7.6820    -0.3680    -1.0090 hc         1 A6L       0.037700
     44 H25          8.7670     0.7110    -0.1310 hc         1 A6L       0.037700
     45 H26          8.8360    -0.9150     1.7830 hc         1 A6L       0.036700
     46 H27          7.7500    -1.9940     0.9050 hc         1 A6L       0.036700
     47 H28          9.4610    -2.2290    -0.9200 hc         1 A6L       0.036700
     48 H29         10.5460    -1.1510    -0.0430 hc         1 A6L       0.036700
     49 H30         10.6170    -2.7810     1.8710 hc         1 A6L       0.036700
     50 H31          9.5320    -3.8590     0.9940 hc         1 A6L       0.036700
     51 H32         11.8960    -4.6090     0.7650 hc         1 A6L       0.031367
     52 H33         11.2560    -4.1290    -0.8220 hc         1 A6L       0.031367
     53 H34         12.3510    -3.0410     0.0640 hc         1 A6L       0.031367
     54 C1          -7.5070    -1.0880     0.6940 c3         1 A6L       0.128600
     55 C2          -8.5420    -0.3740    -0.2150 c3         1 A6L       0.164300
     56 C19         -9.9790    -0.4610     0.3620 c3         1 A6L       0.128600
     57 O2         -10.8960     0.2620    -0.4770 oh         1 A6L      -0.642000
     58 O1          -8.1990     1.0150    -0.3860 oh         1 A6L      -0.626000
     59 H3          -7.8490    -2.1120     0.8920 h1         1 A6L       0.050700
     60 H35         -7.4400    -0.5580     1.6540 h1         1 A6L       0.050700
     61 H36         -8.5440    -0.8880    -1.1880 h1         1 A6L       0.098700
     62 H37        -10.2760    -1.5160     0.4260 h1         1 A6L       0.021200
     63 H38         -9.9890    -0.0490     1.3800 h1         1 A6L       0.021200
     64 H39        -11.7960     0.1360    -0.0990 ho         1 A6L       0.445000
     65 H40         -9.0390     1.4460    -0.6650 ho         1 A6L       0.436000
@<TRIPOS>BOND
     1     1     2 1   
     2     1     4 1   
     3     1    21 1   
     4     1    22 1   
     5     2     3 1   
     6     2    20 2   
     7     3    54 1   
     8     4     5 1   
     9     4    23 1   
    10     4    24 1   
    11     5     6 1   
    12     5    25 1   
    13     5    26 1   
    14     6     7 1   
    15     6    27 1   
    16     6    28 1   
    17     7     8 1   
    18     7    29 1   
    19     7    30 1   
    20     8     9 1   
    21     8    31 1   
    22     8    32 1   
    23     9    10 1   
    24     9    33 1   
    25     9    34 1   
    26    10    11 2   
    27    10    35 1   
    28    11    12 1   
    29    11    36 1   
    30    12    13 1   
    31    12    37 1   
    32    12    38 1   
    33    13    14 1   
    34    13    39 1   
    35    13    40 1   
    36    14    15 1   
    37    14    41 1   
    38    14    42 1   
    39    15    16 1   
    40    15    43 1   
    41    15    44 1   
    42    16    17 1   
    43    16    45 1   
    44    16    46 1   
    45    17    18 1   
    46    17    47 1   
    47    17    48 1   
    48    18    19 1   
    49    18    49 1   
    50    18    50 1   
    51    19    51 1   
    52    19    52 1   
    53    19    53 1   
    54    54    55 1   
    55    54    59 1   
    56    54    60 1   
    57    55    56 1   
    58    55    58 1   
    59    55    61 1   
    60    56    57 1   
    61    56    62 1   
    62    56    63 1   
    63    57    64 1   
    64    58    65 1   
@<TRIPOS>SUBSTRUCTURE
     1 A6L         1 TEMP              0 ****  ****    0 ROOT
