@<TRIPOS>MOLECULE
A6M
   51    53     1     0     0
SMALL
No Charge or Current Charge


@<TRIPOS>ATOM
      1 Cl1         -9.5410    -0.3010     0.8450 cl         1 A6M      -0.213000
      2 C18         -7.8910     0.1450     0.4310 ca         1 A6M       0.120000
      3 C17         -6.9990     0.5470     1.4380 ca         1 A6M      -0.104000
      4 C16         -5.6800     0.9030     1.1070 ca         1 A6M      -0.090000
      5 C19         -7.4670     0.1000    -0.9070 ca         1 A6M      -0.104000
      6 C20         -6.1480     0.4570    -1.2390 ca         1 A6M      -0.090000
      7 C15         -5.2450     0.8570    -0.2330 ca         1 A6M      -0.060300
      8 C14         -3.8140     1.2550    -0.5880 c3         1 A6M      -0.027100
      9 C           -2.7480     0.2240    -0.1310 c3         1 A6M       0.176500
     10 N           -2.9460    -1.0730    -0.8040 n8         1 A6M      -0.988200
     11 C1          -1.3110     0.7270    -0.3870 c3         1 A6M      -0.200400
     12 C2          -0.1820    -0.0350     0.3310 c          1 A6M       0.602100
     13 O           -0.4070    -1.0270     1.0130 o          1 A6M      -0.610100
     14 N1           1.1350     0.4440     0.1910 n          1 A6M      -0.422800
     15 C3           1.5160     1.6200    -0.6300 c5         1 A6M       0.112000
     16 C4           3.0620     1.4760    -0.7080 c5         1 A6M      -0.077700
     17 C6           3.3650     0.9160     0.7120 c5         1 A6M      -0.035400
     18 C5           3.8180     2.7780    -1.0550 c3         1 A6M       0.169600
     19 O1           3.4390     3.2380    -2.3580 oh         1 A6M      -0.664000
     20 C7           2.2890    -0.1960     0.8600 c5         1 A6M       0.108000
     21 C8           4.7680     0.2920     0.7450 ca         1 A6M      -0.077300
     22 C13          5.7100     0.7790     1.6760 ca         1 A6M      -0.096000
     23 C12          7.0070     0.2410     1.7370 ca         1 A6M      -0.101500
     24 C11          7.3800    -0.7920     0.8650 ca         1 A6M       0.123000
     25 Cl           9.0030    -1.4650     0.9410 cl         1 A6M      -0.199000
     26 C10          6.4570    -1.2880    -0.0680 ca         1 A6M      -0.101500
     27 C9           5.1590    -0.7500    -0.1290 ca         1 A6M      -0.096000
     28 H17         -7.3300     0.5830     2.4730 ha         1 A6M       0.127000
     29 H19         -8.1600    -0.2110    -1.6860 ha         1 A6M       0.127000
     30 H16         -4.9960     1.2170     1.8930 ha         1 A6M       0.113500
     31 H20         -5.8270     0.4170    -2.2780 ha         1 A6M       0.113500
     32 H141        -3.7170     1.4180    -1.6690 hc         1 A6M       0.043700
     33 H142        -3.5910     2.2220    -0.1210 hc         1 A6M       0.043700
     34 H           -2.8750     0.0780     0.9540 h1         1 A6M       0.082700
     35 HN1         -2.7120    -0.9740    -1.7970 hn         1 A6M       0.400500
     36 HN2         -2.2360    -1.7260    -0.4500 hn         1 A6M       0.400500
     37 H11C        -1.0770     0.7760    -1.4570 hc         1 A6M       0.061700
     38 H12C        -1.2080     1.7810    -0.1070 hc         1 A6M       0.061700
     39 H71C         2.0870    -0.4270     1.9140 h1         1 A6M       0.062200
     40 H72C         2.5560    -1.1280     0.3460 h1         1 A6M       0.062200
     41 H31C         1.0630     1.6040    -1.6300 h1         1 A6M       0.052700
     42 H32C         1.2210     2.5520    -0.1280 h1         1 A6M       0.052700
     43 H6           3.2270     1.6900     1.4790 hc         1 A6M       0.061700
     44 H4           3.3160     0.7480    -1.4860 hc         1 A6M       0.074700
     45 H51C         3.5890     3.5410    -0.2990 h1         1 A6M       0.026700
     46 H52C         4.8980     2.5830    -1.0210 h1         1 A6M       0.026700
     47 H1           3.9620     4.0510    -2.5380 ho         1 A6M       0.449000
     48 H13          5.4360     1.5810     2.3580 ha         1 A6M       0.118000
     49 H9           4.4640    -1.1510    -0.8630 ha         1 A6M       0.118000
     50 H12          7.7230     0.6250     2.4590 ha         1 A6M       0.131500
     51 H10          6.7470    -2.0880    -0.7440 ha         1 A6M       0.131500
@<TRIPOS>BOND
     1     1     2 1   
     2     2     3 ar  
     3     2     5 ar  
     4     3     4 ar  
     5     3    28 1   
     6     4     7 ar  
     7     4    30 1   
     8     5     6 ar  
     9     5    29 1   
    10     6     7 ar  
    11     6    31 1   
    12     7     8 1   
    13     8     9 1   
    14     8    32 1   
    15     8    33 1   
    16     9    10 1   
    17     9    11 1   
    18     9    34 1   
    19    10    35 1   
    20    10    36 1   
    21    11    12 1   
    22    11    37 1   
    23    11    38 1   
    24    12    13 2   
    25    12    14 1   
    26    14    15 1   
    27    14    20 1   
    28    15    16 1   
    29    15    41 1   
    30    15    42 1   
    31    16    17 1   
    32    16    18 1   
    33    16    44 1   
    34    17    20 1   
    35    17    21 1   
    36    17    43 1   
    37    18    19 1   
    38    18    45 1   
    39    18    46 1   
    40    19    47 1   
    41    20    39 1   
    42    20    40 1   
    43    21    22 ar  
    44    21    27 ar  
    45    22    23 ar  
    46    22    48 1   
    47    23    24 ar  
    48    23    50 1   
    49    24    25 1   
    50    24    26 ar  
    51    26    27 ar  
    52    26    51 1   
    53    27    49 1   
@<TRIPOS>SUBSTRUCTURE
     1 A6M         1 TEMP              0 ****  ****    0 ROOT
