@<TRIPOS>MOLECULE
A6M
   51    53     1     0     0
SMALL
abcg2


@<TRIPOS>ATOM
      1 CL1         -9.3220    -0.4820     0.7200 cl         1 A6M      -0.213000
      2 C18         -7.7080     0.0230     0.3250 ca         1 A6M       0.120000
      3 C17         -6.9900     0.7860     1.2320 ca         1 A6M      -0.104000
      4 C16         -5.7040     1.1870     0.9010 ca         1 A6M      -0.090000
      5 C19         -7.1600    -0.3400    -0.8950 ca         1 A6M      -0.104000
      6 C20         -5.8700     0.0680    -1.2020 ca         1 A6M      -0.090000
      7 C15         -5.1220     0.8380    -0.3150 ca         1 A6M      -0.060300
      8 C14         -3.7180     1.2610    -0.6320 c3         1 A6M      -0.027100
      9 C           -2.6690     0.2910    -0.0740 c3         1 A6M       0.176500
     10 N           -2.8430    -1.0120    -0.6910 n8         1 A6M      -0.988200
     11 C1          -1.2750     0.8980    -0.2550 c3         1 A6M      -0.200400
     12 C2          -0.1790     0.1250     0.4490 c          1 A6M       0.602100
     13 O           -0.4100    -0.8540     1.1520 o          1 A6M      -0.610100
     14 N1           1.0750     0.5780     0.2810 n          1 A6M      -0.422800
     15 C3           1.4750     1.7250    -0.5230 c5         1 A6M       0.112000
     16 C4           2.9840     1.5500    -0.6590 c5         1 A6M      -0.077700
     17 C6           3.3710     0.8820     0.6670 c5         1 A6M      -0.035400
     18 C5           3.7340     2.8390    -0.9060 c3         1 A6M       0.169600
     19 O1           3.2660     3.4100    -2.1070 oh         1 A6M      -0.664000
     20 C7           2.2020    -0.0690     0.9340 c5         1 A6M       0.108000
     21 C8           4.7190     0.2170     0.6660 ca         1 A6M      -0.077300
     22 C13          5.7150     0.6320     1.5440 ca         1 A6M      -0.096000
     23 C12          6.9710     0.0400     1.5460 ca         1 A6M      -0.101500
     24 C11          7.2330    -0.9840     0.6520 ca         1 A6M       0.123000
     25 CL           8.7980    -1.7320     0.6410 cl         1 A6M      -0.199000
     26 C10          6.2600    -1.4210    -0.2350 ca         1 A6M      -0.101500
     27 C9           5.0130    -0.8180    -0.2200 ca         1 A6M      -0.096000
     28 H17         -7.4250     1.0690     2.1810 ha         1 A6M       0.127000
     29 H19         -7.7270    -0.9340    -1.5980 ha         1 A6M       0.127000
     30 H16         -5.1450     1.7870     1.6100 ha         1 A6M       0.113500
     31 H20         -5.4450    -0.2160    -2.1560 ha         1 A6M       0.113500
     32 H141        -3.5840     1.3450    -1.7150 hc         1 A6M       0.043700
     33 H142        -3.5350     2.2560    -0.2200 hc         1 A6M       0.043700
     34 H           -2.8580     0.1740     0.9980 h1         1 A6M       0.082700
     35 HN1         -2.6230    -0.9490    -1.6780 hn         1 A6M       0.400500
     36 HN2         -2.1780    -1.6610    -0.2920 hn         1 A6M       0.400500
     37 H11C        -1.0500     0.9650    -1.3260 hc         1 A6M       0.061700
     38 H12C        -1.2570     1.9300     0.1120 hc         1 A6M       0.061700
     39 H71C         2.0270    -0.2010     2.0020 h1         1 A6M       0.062200
     40 H72C         2.3810    -1.0600     0.5070 h1         1 A6M       0.062200
     41 H31C         0.9740     1.7310    -1.4900 h1         1 A6M       0.052700
     42 H32C         1.2320     2.6660    -0.0150 h1         1 A6M       0.052700
     43 H6           3.3680     1.6520     1.4470 hc         1 A6M       0.061700
     44 H4           3.1830     0.8520    -1.4800 hc         1 A6M       0.074700
     45 H51C         3.5770     3.5110    -0.0500 h1         1 A6M       0.026700
     46 H52C         4.8100     2.6270    -0.9520 h1         1 A6M       0.026700
     47 H1           3.7440     4.2310    -2.2550 ho         1 A6M       0.449000
     48 H13          5.5150     1.4340     2.2440 ha         1 A6M       0.118000
     49 H9           4.2620    -1.1690    -0.9180 ha         1 A6M       0.118000
     50 H12          7.7310     0.3780     2.2370 ha         1 A6M       0.131500
     51 H10          6.4680    -2.2220    -0.9320 ha         1 A6M       0.131500
@<TRIPOS>BOND
     1     1     2 1   
     2     2     3 ar  
     3     2     5 ar  
     4     3     4 ar  
     5     3    28 1   
     6     4     7 ar  
     7     4    30 1   
     8     5     6 ar  
     9     5    29 1   
    10     6     7 ar  
    11     6    31 1   
    12     7     8 1   
    13     8     9 1   
    14     8    32 1   
    15     8    33 1   
    16     9    10 1   
    17     9    11 1   
    18     9    34 1   
    19    10    35 1   
    20    10    36 1   
    21    11    12 1   
    22    11    37 1   
    23    11    38 1   
    24    12    13 2   
    25    12    14 1   
    26    14    15 1   
    27    14    20 1   
    28    15    16 1   
    29    15    41 1   
    30    15    42 1   
    31    16    17 1   
    32    16    18 1   
    33    16    44 1   
    34    17    20 1   
    35    17    21 1   
    36    17    43 1   
    37    18    19 1   
    38    18    45 1   
    39    18    46 1   
    40    19    47 1   
    41    20    39 1   
    42    20    40 1   
    43    21    22 ar  
    44    21    27 ar  
    45    22    23 ar  
    46    22    48 1   
    47    23    24 ar  
    48    23    50 1   
    49    24    25 1   
    50    24    26 ar  
    51    26    27 ar  
    52    26    51 1   
    53    27    49 1   
@<TRIPOS>SUBSTRUCTURE
     1 A6M         1 TEMP              0 ****  ****    0 ROOT
