@<TRIPOS>MOLECULE
A6N
   39    39     1     0     0
SMALL
abcg2


@<TRIPOS>ATOM
      1 C1          -2.8100     5.9250    14.3150 c3         1 A6N       0.152300
      2 O2          -4.2200     5.8440    14.6100 os         1 A6N      -0.341100
      3 C4          -4.7150     4.6770    15.0820 ca         1 A6N       0.201100
      4 C5          -6.0600     4.6970    15.4680 ca         1 A6N      -0.195500
      5 C6          -6.6510     3.5620    15.9890 ca         1 A6N       0.031500
      6 C7          -5.9010     2.3940    16.1230 ca         1 A6N      -0.328500
      7 C8          -4.5690     2.3610    15.7220 ca         1 A6N       0.031500
      8 C9          -3.9710     3.4970    15.1990 ca         1 A6N      -0.195500
      9 C16         -2.4760     7.3440    14.0460 cc         1 A6N       0.179300
     10 C17         -2.2770     7.9920    12.8520 cd         1 A6N      -0.162000
     11 N18         -2.0080     9.2730    13.1970 na         1 A6N       0.210000
     12 N19         -2.0370     9.4140    14.5400 nd         1 A6N      -0.184800
     13 N20         -2.3180     8.2530    15.0490 nc         1 A6N      -0.331000
     14 C21         -1.7000    10.3750    12.3510 ca         1 A6N      -0.002200
     15 C22         -2.1350    11.6480    12.7040 ca         1 A6N      -0.100000
     16 C23         -1.8180    12.7220    11.8820 ca         1 A6N      -0.097000
     17 C24         -1.0870    12.5230    10.7150 ca         1 A6N      -0.101000
     18 C25         -0.6650    11.2430    10.3700 ca         1 A6N      -0.097000
     19 C26         -0.9640    10.1620    11.1910 ca         1 A6N      -0.100000
     20 S1          -6.6210     0.9620    16.8530 sy         1 A6N       1.159600
     21 O3          -7.9340     1.3290    17.3400 o          1 A6N      -0.556500
     22 O4          -5.6920     0.3710    17.7940 o          1 A6N      -0.556500
     23 N5          -6.6980    -0.0950    15.5900 n8         1 A6N      -1.015100
     24 H1          -2.2420     5.5670    15.1760 h1         1 A6N       0.055200
     25 H11         -2.5790     5.3030    13.4490 h1         1 A6N       0.055200
     26 H5          -6.6210     5.6160    15.3640 ha         1 A6N       0.129000
     27 H6          -7.6850     3.5790    16.3000 ha         1 A6N       0.136000
     28 H8          -3.9920     1.4520    15.8190 ha         1 A6N       0.136000
     29 H9          -2.9370     3.4550    14.8920 ha         1 A6N       0.129000
     30 H17         -2.3170     7.6570    11.8310 h4         1 A6N       0.171000
     31 H22         -2.7170    11.7890    13.6040 ha         1 A6N       0.133500
     32 H23         -2.1530    13.7150    12.1510 ha         1 A6N       0.123500
     33 H24         -0.8460    13.3630    10.0760 ha         1 A6N       0.122000
     34 H25         -0.0910    11.0830     9.4670 ha         1 A6N       0.123500
     35 H26         -0.6170     9.1690    10.9400 ha         1 A6N       0.133500
     36 H2          -2.4130    -0.8570    16.3530 DU         1 A6N       0.000500
     37 H3          -3.1210    -0.7510    16.5570 DU         1 A6N       0.000500
     38 HN5         -6.7310    -1.0540    15.9250 hn         1 A6N       0.474000
     39 HN51        -7.4730     0.1060    14.9650 hn         1 A6N       0.474000
@<TRIPOS>BOND
     1     1     2 1   
     2     1     9 1   
     3     1    24 1   
     4     1    25 1   
     5     2     3 1   
     6     3     4 ar  
     7     3     8 ar  
     8     4     5 ar  
     9     4    26 1   
    10     5     6 ar  
    11     5    27 1   
    12     6     7 ar  
    13     6    20 1   
    14     7     8 ar  
    15     7    28 1   
    16     8    29 1   
    17     9    10 2   
    18     9    13 1   
    19    10    11 1   
    20    10    30 1   
    21    11    12 1   
    22    11    14 1   
    23    12    13 2   
    24    14    15 ar  
    25    14    19 ar  
    26    15    16 ar  
    27    15    31 1   
    28    16    17 ar  
    29    16    32 1   
    30    17    18 ar  
    31    17    33 1   
    32    18    19 ar  
    33    18    34 1   
    34    19    35 1   
    35    20    21 2   
    36    20    22 2   
    37    20    23 1   
    38    23    38 1   
    39    23    39 1   
@<TRIPOS>SUBSTRUCTURE
     1 A6N         1 TEMP              0 ****  ****    0 ROOT
