@<TRIPOS>MOLECULE
A6O
   49    51     1     0     0
SMALL
abcg2


@<TRIPOS>ATOM
      1 C11         -0.5570    -0.0650     0.8900 c2         1 A6O      -0.226200
      2 C12          0.3600    -0.7050     0.1530 ce         1 A6O      -0.026400
      3 C13          1.7620    -0.2320     0.0880 ca         1 A6O      -0.083800
      4 C02         -2.8630    -0.1540    -1.2200 c          1 A6O       0.587100
      5 C03         -3.8210    -1.3160    -1.4070 c5         1 A6O      -0.186400
      6 C04         -4.5790    -1.4290    -0.0840 c5         1 A6O      -0.114400
      7 C05         -4.4190    -0.0480     0.5660 c5         1 A6O       0.172300
      8 C07         -2.9910     0.3790     0.1980 c5         1 A6O      -0.142000
      9 C08         -2.7170     1.8790     0.2850 c3         1 A6O      -0.048400
     10 C09         -2.9080     2.4700     1.6750 c3         1 A6O      -0.087100
     11 C10         -1.9930    -0.4370     1.0740 c3         1 A6O      -0.025200
     12 C14          2.1040     1.0960     0.3450 ca         1 A6O      -0.059000
     13 C15          3.4140     1.5440     0.3410 ca         1 A6O      -0.202000
     14 C16          4.4400     0.6430     0.0620 ca         1 A6O       0.147100
     15 C18          6.1260     2.2790     0.3970 c3         1 A6O       0.149900
     16 C19          4.1170    -0.6780    -0.2330 ca         1 A6O      -0.154000
     17 C20          2.8010    -1.1220    -0.2340 ca         1 A6O      -0.025300
     18 C21          2.5240    -2.5560    -0.6120 c6         1 A6O      -0.034100
     19 C22          1.1360    -3.0240    -0.2060 c6         1 A6O      -0.071400
     20 C23          0.0950    -1.9790    -0.5960 c6         1 A6O      -0.043200
     21 O06         -5.3000     0.8840    -0.0230 oh         1 A6O      -0.654000
     22 O17          5.7490     0.9620     0.0470 os         1 A6O      -0.343100
     23 H2          -0.2400     0.8140     1.4430 ha         1 A6O       0.172000
     24 H4          -4.4850    -1.0840    -2.2430 hc         1 A6O       0.073700
     25 H5          -3.2800    -2.2220    -1.6880 hc         1 A6O       0.073700
     26 H6          -5.6310    -1.6870    -0.2180 hc         1 A6O       0.050700
     27 H7          -4.1510    -2.2030     0.5540 hc         1 A6O       0.050700
     28 H8          -4.5570    -0.0940     1.6530 h1         1 A6O       0.045700
     29 H9          -1.6950     2.0620    -0.0540 hc         1 A6O       0.057700
     30 H10         -3.3620     2.4060    -0.4210 hc         1 A6O       0.057700
     31 H11         -2.6740     3.5350     1.6710 hc         1 A6O       0.031033
     32 H12         -3.9360     2.3620     2.0230 hc         1 A6O       0.031033
     33 H13         -2.2600     2.0000     2.4170 hc         1 A6O       0.031033
     34 H14         -2.1350    -1.5070     0.9080 hc         1 A6O       0.045700
     35 H15         -2.2670    -0.2680     2.1190 hc         1 A6O       0.045700
     36 H16          1.3240     1.8220     0.5400 ha         1 A6O       0.113000
     37 H17          3.6100     2.5870     0.5480 ha         1 A6O       0.117000
     38 H18          5.7300     3.0180    -0.3040 h1         1 A6O       0.040033
     39 H19          5.8000     2.5420     1.4060 h1         1 A6O       0.040033
     40 H20          7.2120     2.3100     0.3600 h1         1 A6O       0.040033
     41 H21          4.9150    -1.3750    -0.4620 ha         1 A6O       0.124000
     42 H22          2.6270    -2.6460    -1.6990 hc         1 A6O       0.051200
     43 H23          3.2910    -3.2050    -0.1840 hc         1 A6O       0.051200
     44 H24          0.9120    -3.9790    -0.6830 hc         1 A6O       0.043200
     45 H25          1.0940    -3.1910     0.8740 hc         1 A6O       0.043200
     46 H26         -0.9090    -2.3550    -0.4060 hc         1 A6O       0.051700
     47 H27          0.1600    -1.7920    -1.6730 hc         1 A6O       0.051700
     48 H28         -6.2020     0.5850     0.1310 ho         1 A6O       0.442000
     49 O01         -2.1210     0.2790    -2.0670 o          1 A6O      -0.504100
@<TRIPOS>BOND
     1     1     2 2   
     2     1    11 1   
     3     1    23 1   
     4     2     3 1   
     5     2    20 1   
     6     3    12 ar  
     7     3    17 ar  
     8     4     5 1   
     9     4     8 1   
    10     4    49 2   
    11     5     6 1   
    12     5    24 1   
    13     5    25 1   
    14     6     7 1   
    15     6    26 1   
    16     6    27 1   
    17     7     8 1   
    18     7    21 1   
    19     7    28 1   
    20     8     9 1   
    21     8    11 1   
    22     9    10 1   
    23     9    29 1   
    24     9    30 1   
    25    10    31 1   
    26    10    32 1   
    27    10    33 1   
    28    11    34 1   
    29    11    35 1   
    30    12    13 ar  
    31    12    36 1   
    32    13    14 ar  
    33    13    37 1   
    34    14    16 ar  
    35    14    22 1   
    36    15    22 1   
    37    15    38 1   
    38    15    39 1   
    39    15    40 1   
    40    16    17 ar  
    41    16    41 1   
    42    17    18 1   
    43    18    19 1   
    44    18    42 1   
    45    18    43 1   
    46    19    20 1   
    47    19    44 1   
    48    19    45 1   
    49    20    46 1   
    50    20    47 1   
    51    21    48 1   
@<TRIPOS>SUBSTRUCTURE
     1 A6O         1 TEMP              0 ****  ****    0 ROOT
