@<TRIPOS>MOLECULE
A6O
   49    51     1     0     0
SMALL
No Charge or Current Charge


@<TRIPOS>ATOM
      1 C11         -0.5720    -0.1280     1.0310 c2         1 A6O      -0.226200
      2 C12          0.3680    -0.7170     0.2420 ce         1 A6O      -0.026400
      3 C13          1.7980    -0.2410     0.1910 ca         1 A6O      -0.083800
      4 C02         -2.8940    -0.2830    -1.2220 c          1 A6O       0.587100
      5 C03         -3.7430    -1.5650    -1.2100 c5         1 A6O      -0.186400
      6 C04         -4.7360    -1.4360    -0.0120 c5         1 A6O      -0.114400
      7 C05         -4.5290     0.0260     0.4920 c5         1 A6O       0.172300
      8 C07         -3.0100     0.3110     0.2000 c5         1 A6O      -0.142000
      9 C08         -2.6590     1.8450     0.2040 c3         1 A6O      -0.048400
     10 C09         -2.8730     2.5840     1.5450 c3         1 A6O      -0.087100
     11 C10         -2.0540    -0.4510     1.1900 c3         1 A6O      -0.025200
     12 C14          2.1520     1.0660     0.6010 ca         1 A6O      -0.059000
     13 C15          3.4860     1.5060     0.5550 ca         1 A6O      -0.202000
     14 C16          4.4960     0.6470     0.0830 ca         1 A6O       0.147100
     15 C18          6.2720     2.3250     0.4280 c3         1 A6O       0.149900
     16 C19          4.1540    -0.6410    -0.3490 ca         1 A6O      -0.154000
     17 C20          2.8210    -1.0920    -0.3040 ca         1 A6O      -0.025300
     18 C21          2.5160    -2.4950    -0.8410 c6         1 A6O      -0.034100
     19 C22          1.1300    -3.0240    -0.4270 c6         1 A6O      -0.071400
     20 C23          0.0530    -1.9430    -0.6250 c6         1 A6O      -0.043200
     21 O06         -5.3930     0.9060    -0.2250 oh         1 A6O      -0.654000
     22 O17          5.8210     1.0240     0.0120 os         1 A6O      -0.343100
     23 H2          -0.2860     0.7020     1.6740 ha         1 A6O       0.172000
     24 H4          -4.2180    -1.7090    -2.1860 hc         1 A6O       0.073700
     25 H5          -3.0830    -2.4170    -1.0280 hc         1 A6O       0.073700
     26 H6          -5.7730    -1.6380    -0.3070 hc         1 A6O       0.050700
     27 H7          -4.4940    -2.1570     0.7770 hc         1 A6O       0.050700
     28 H8          -4.7460     0.1020     1.5680 h1         1 A6O       0.045700
     29 H9          -1.6200     2.0000    -0.1130 hc         1 A6O       0.057700
     30 H10         -3.2570     2.3640    -0.5550 hc         1 A6O       0.057700
     31 H11         -2.6480     3.6510     1.4280 hc         1 A6O       0.031033
     32 H12         -3.9110     2.4930     1.8840 hc         1 A6O       0.031033
     33 H13         -2.2160     2.1900     2.3290 hc         1 A6O       0.031033
     34 H14         -2.2120    -1.5340     1.1480 hc         1 A6O       0.045700
     35 H15         -2.3430    -0.1940     2.2160 hc         1 A6O       0.045700
     36 H16          1.3980     1.7680     0.9450 ha         1 A6O       0.113000
     37 H17          3.7110     2.5160     0.8830 ha         1 A6O       0.117000
     38 H18          5.7890     3.1130    -0.1650 h1         1 A6O       0.040033
     39 H19          6.0490     2.4940     1.4890 h1         1 A6O       0.040033
     40 H20          7.3570     2.4130     0.2900 h1         1 A6O       0.040033
     41 H21          4.9340    -1.2940    -0.7310 ha         1 A6O       0.124000
     42 H22          2.5780    -2.4700    -1.9370 hc         1 A6O       0.051200
     43 H23          3.2880    -3.2020    -0.5070 hc         1 A6O       0.051200
     44 H24          0.8820    -3.9220    -1.0090 hc         1 A6O       0.043200
     45 H25          1.1510    -3.3280     0.6290 hc         1 A6O       0.043200
     46 H26         -0.9150    -2.3850    -0.3750 hc         1 A6O       0.051700
     47 H27         -0.0000    -1.6470    -1.6820 hc         1 A6O       0.051700
     48 H28         -6.3110     0.6880     0.0470 ho         1 A6O       0.442000
     49 O01         -2.4610     0.2840    -2.2200 o          1 A6O      -0.504100
@<TRIPOS>BOND
     1     1     2 2   
     2     1    11 1   
     3     1    23 1   
     4     2     3 1   
     5     2    20 1   
     6     3    12 ar  
     7     3    17 ar  
     8     4     5 1   
     9     4     8 1   
    10     4    49 2   
    11     5     6 1   
    12     5    24 1   
    13     5    25 1   
    14     6     7 1   
    15     6    26 1   
    16     6    27 1   
    17     7     8 1   
    18     7    21 1   
    19     7    28 1   
    20     8     9 1   
    21     8    11 1   
    22     9    10 1   
    23     9    29 1   
    24     9    30 1   
    25    10    31 1   
    26    10    32 1   
    27    10    33 1   
    28    11    34 1   
    29    11    35 1   
    30    12    13 ar  
    31    12    36 1   
    32    13    14 ar  
    33    13    37 1   
    34    14    16 ar  
    35    14    22 1   
    36    15    22 1   
    37    15    38 1   
    38    15    39 1   
    39    15    40 1   
    40    16    17 ar  
    41    16    41 1   
    42    17    18 1   
    43    18    19 1   
    44    18    42 1   
    45    18    43 1   
    46    19    20 1   
    47    19    44 1   
    48    19    45 1   
    49    20    46 1   
    50    20    47 1   
    51    21    48 1   
@<TRIPOS>SUBSTRUCTURE
     1 A6O         1 TEMP              0 ****  ****    0 ROOT
