@<TRIPOS>MOLECULE
A6P
   27    27     1     0     0
SMALL
bcc


@<TRIPOS>ATOM
      1 C1          -2.1790     1.4610    -0.2240 c6         1 A6P       0.313900
      2 C2          -3.2510     0.4450    -0.6350 c6         1 A6P       0.080100
      3 C3          -2.9350    -0.9600    -0.1310 c6         1 A6P       0.125100
      4 C4          -1.5080    -1.3270    -0.5370 c6         1 A6P       0.115100
      5 C5          -0.5240    -0.2620    -0.0570 c6         1 A6P       0.128100
      6 C6           0.8960    -0.5310    -0.5190 c3         1 A6P       0.239400
      7 O1          -2.2830     1.7360     1.1330 oh         1 A6P      -0.617800
      8 O2          -4.5360     0.7810    -0.1750 oh         1 A6P      -0.612800
      9 O3          -3.0580    -1.0800     1.2630 oh         1 A6P      -0.568800
     10 O4          -1.1180    -2.5700    -0.0090 oh         1 A6P      -0.543800
     11 O5          -0.9150     0.9930    -0.6000 os         1 A6P      -0.389600
     12 O6           1.7390     0.4810    -0.0610 os         1 A6P      -0.551200
     13 P            3.3920     0.0980     0.1160 p5         1 A6P       1.272900
     14 O1P          3.4330    -0.9840     1.1900 o          1 A6P      -0.926833
     15 O2P          3.8350    -0.3800    -1.2640 o          1 A6P      -0.926833
     16 O3P          3.9470     1.4510     0.5420 o          1 A6P      -0.926833
     17 H1          -2.3150     2.3780    -0.8150 h2         1 A6P       0.025700
     18 H2          -3.2220     0.4060    -1.7340 h1         1 A6P       0.037700
     19 HA          -1.7610     2.5230     1.3250 ho         1 A6P       0.421000
     20 H3          -3.6260    -1.6550    -0.6360 h1         1 A6P       0.001700
     21 HB          -4.7250     1.6980    -0.4000 ho         1 A6P       0.399000
     22 H4          -1.4760    -1.3400    -1.6380 h1         1 A6P       0.024700
     23 HC          -3.8010    -0.5360     1.5450 ho         1 A6P       0.406000
     24 H5          -0.5370    -0.2240     1.0400 h1         1 A6P       0.082700
     25 HD          -1.7070    -3.2470    -0.3560 ho         1 A6P       0.371000
     26 H6C1         1.1930    -1.5130    -0.1360 h1         1 A6P       0.010200
     27 H6C2         0.9050    -0.6040    -1.6190 h1         1 A6P       0.010200
@<TRIPOS>BOND
     1     1     2 1   
     2     1     7 1   
     3     1    11 1   
     4     1    17 1   
     5     2     3 1   
     6     2     8 1   
     7     2    18 1   
     8     3     4 1   
     9     3     9 1   
    10     3    20 1   
    11     4     5 1   
    12     4    10 1   
    13     4    22 1   
    14     5     6 1   
    15     5    11 1   
    16     5    24 1   
    17     6    12 1   
    18     6    26 1   
    19     6    27 1   
    20     7    19 1   
    21     8    21 1   
    22     9    23 1   
    23    10    25 1   
    24    12    13 1   
    25    13    14 1   
    26    13    15 1   
    27    13    16 1   
@<TRIPOS>SUBSTRUCTURE
     1 A6P         1 TEMP              0 ****  ****    0 ROOT
