@<TRIPOS>MOLECULE
A6P
   27    27     1     0     0
SMALL
No Charge or Current Charge


@<TRIPOS>ATOM
      1 C1          -1.9530     1.3900    -0.0830 c6         1 A6P       0.360300
      2 C2          -3.2010     0.5030    -0.4410 c6         1 A6P       0.103300
      3 C3          -2.8470    -1.0190    -0.2940 c6         1 A6P       0.148300
      4 C4          -1.5520    -1.3620    -1.1090 c6         1 A6P       0.138300
      5 C5          -0.4140    -0.4010    -0.6550 c6         1 A6P       0.151300
      6 C6           0.9660    -0.5830    -1.3590 c3         1 A6P       0.262600
      7 O1          -1.5620     1.2540     1.2840 oh         1 A6P      -0.740000
      8 O2          -4.3630     0.8640     0.3460 oh         1 A6P      -0.735000
      9 O3          -2.6490    -1.3530     1.0960 oh         1 A6P      -0.691000
     10 O4          -1.2030    -2.7390    -0.8880 oh         1 A6P      -0.666000
     11 O5          -0.8370     0.9750    -0.8700 os         1 A6P      -0.436000
     12 O6           1.9690     0.3320    -0.8470 os         1 A6P      -0.574400
     13 P            2.1950     0.6290     0.7250 p5         1 A6P       1.272900
     14 O1P          1.0340     1.3600     1.3100 o          1 A6P      -0.926833
     15 O2P          2.3980    -0.6590     1.4400 o          1 A6P      -0.926833
     16 O3P          3.4190     1.4630     0.8710 o          1 A6P      -0.926833
     17 H1          -2.1720     2.4460    -0.3010 h2         1 A6P       0.025700
     18 H2          -3.4260     0.6810    -1.5030 h1         1 A6P       0.037700
     19 HA          -0.5480     1.3530     1.2550 ho         1 A6P       0.520000
     20 H3          -3.6790    -1.6130    -0.6990 h1         1 A6P       0.001700
     21 HB          -4.0290     1.0350     1.2580 ho         1 A6P       0.498000
     22 H4          -1.7460    -1.1950    -2.1790 h1         1 A6P       0.024700
     23 HC          -2.2480    -0.5350     1.4920 ho         1 A6P       0.505000
     24 H5          -0.2440    -0.5920     0.4110 h1         1 A6P       0.082700
     25 HD          -1.5760    -2.9500     0.0000 ho         1 A6P       0.470000
     26 H6C1         1.3000    -1.6190    -1.2150 h1         1 A6P       0.010200
     27 H6C2         0.8310    -0.4280    -2.4370 h1         1 A6P       0.010200
@<TRIPOS>BOND
     1     1     2 1   
     2     1     7 1   
     3     1    11 1   
     4     1    17 1   
     5     2     3 1   
     6     2     8 1   
     7     2    18 1   
     8     3     4 1   
     9     3     9 1   
    10     3    20 1   
    11     4     5 1   
    12     4    10 1   
    13     4    22 1   
    14     5     6 1   
    15     5    11 1   
    16     5    24 1   
    17     6    12 1   
    18     6    26 1   
    19     6    27 1   
    20     7    19 1   
    21     8    21 1   
    22     9    23 1   
    23    10    25 1   
    24    12    13 1   
    25    13    14 1   
    26    13    15 1   
    27    13    16 1   
@<TRIPOS>SUBSTRUCTURE
     1 A6P         1 TEMP              0 ****  ****    0 ROOT
