@<TRIPOS>MOLECULE
A6Q
   29    29     1     0     0
SMALL
No Charge or Current Charge


@<TRIPOS>ATOM
      1 C10         60.1020    31.5800    -5.5530 cs         1 A6Q       0.490400
      2 N12         60.6140    32.7490    -6.0460 ns         1 A6Q      -0.423900
      3 C13         61.9860    33.2390    -5.9130 c3         1 A6Q       0.105000
      4 C01         55.6530    34.5370   -10.6110 ca         1 A6Q       0.143100
      5 C02         55.7750    34.8980    -9.2540 ca         1 A6Q       0.038100
      6 C03         56.4800    34.0650    -8.3680 ca         1 A6Q      -0.124000
      7 C04         57.0690    32.8630    -8.8310 ca         1 A6Q      -0.143900
      8 C05         56.9380    32.5160   -10.1920 ca         1 A6Q      -0.079000
      9 C06         56.2330    33.3490   -11.0790 ca         1 A6Q      -0.130000
     10 C07         57.8290    31.9540    -7.9170 ce         1 A6Q       0.419800
     11 C14         62.9320    32.5880    -6.9380 c3         1 A6Q      -0.118100
     12 N08         58.0050    32.2300    -6.6590 n2         1 A6Q      -0.493300
     13 N09         58.7770    31.3780    -5.8770 ns         1 A6Q      -0.232900
     14 O16         54.9680    35.3510   -11.4630 oh         1 A6Q      -0.527100
     15 S11         60.9700    30.4920    -4.6250 s          1 A6Q      -0.664400
     16 H121        59.9520    33.3170    -6.5630 hn         1 A6Q       0.330500
     17 H131        62.3470    33.0390    -4.8960 h1         1 A6Q       0.066700
     18 H132        61.9840    34.3280    -6.0600 h1         1 A6Q       0.066700
     19 H031        56.5720    34.3480    -7.3210 ha         1 A6Q       0.124000
     20 H051        57.3850    31.5960   -10.5670 ha         1 A6Q       0.120000
     21 H061        56.1370    33.0740   -12.1260 ha         1 A6Q       0.137000
     22 H071        58.2520    31.0500    -8.3630 h4         1 A6Q      -0.005200
     23 H142        63.9470    32.9870    -6.8240 hc         1 A6Q       0.048367
     24 H141        62.9730    31.5020    -6.7980 hc         1 A6Q       0.048367
     25 H143        62.5950    32.7940    -7.9610 hc         1 A6Q       0.048367
     26 H091        58.3730    30.5280    -5.4880 hn         1 A6Q       0.348500
     27 H151        55.3850    36.1550    -7.8410 ho         1 A6Q       0.478000
     28 H161        54.6590    36.1080   -10.9170 ho         1 A6Q       0.487000
     29 O15         55.2050    36.0620    -8.8030 oh         1 A6Q      -0.557100
@<TRIPOS>BOND
     1     1     2 1   
     2     1    13 1   
     3     1    15 2   
     4     2     3 1   
     5     2    16 1   
     6     3    11 1   
     7     3    17 1   
     8     3    18 1   
     9     4     5 ar  
    10     4     9 ar  
    11     4    14 1   
    12     5     6 ar  
    13     5    29 1   
    14     6     7 ar  
    15     6    19 1   
    16     7     8 ar  
    17     7    10 1   
    18     8     9 ar  
    19     8    20 1   
    20     9    21 1   
    21    10    12 2   
    22    10    22 1   
    23    11    23 1   
    24    11    24 1   
    25    11    25 1   
    26    12    13 1   
    27    13    26 1   
    28    14    28 1   
    29    27    29 1   
@<TRIPOS>SUBSTRUCTURE
     1 A6Q         1 TEMP              0 ****  ****    0 ROOT
