@<TRIPOS>MOLECULE
A6Q
   29    29     1     0     0
SMALL
abcg2


@<TRIPOS>ATOM
      1 C10         60.3610    31.4020    -6.0830 cs         1 A6Q       0.490400
      2 N12         60.6150    32.6930    -5.9070 ns         1 A6Q      -0.423900
      3 C13         61.7370    33.2200    -5.1580 c3         1 A6Q       0.105000
      4 C01         55.3350    34.4690   -10.5210 ca         1 A6Q       0.143100
      5 C02         56.3030    34.9420    -9.6140 ca         1 A6Q       0.038100
      6 C03         57.0680    34.0530    -8.8910 ca         1 A6Q      -0.124000
      7 C04         56.8910    32.6720    -9.0460 ca         1 A6Q      -0.143900
      8 C05         55.9300    32.2110    -9.9400 ca         1 A6Q      -0.079000
      9 C06         55.1590    33.1030   -10.6710 ca         1 A6Q      -0.130000
     10 C07         57.6900    31.7030    -8.3140 ce         1 A6Q       0.419800
     11 C14         63.0100    33.3100    -5.9850 c3         1 A6Q      -0.118100
     12 N08         58.6170    32.0580    -7.5170 n2         1 A6Q      -0.493300
     13 N09         59.3160    31.0960    -6.8910 ns         1 A6Q      -0.232900
     14 O16         54.5780    35.3120   -11.2430 oh         1 A6Q      -0.527100
     15 S11         61.2240    30.1450    -5.3730 s          1 A6Q      -0.664400
     16 H121        60.0450    33.3480    -6.4240 hn         1 A6Q       0.330500
     17 H131        61.8960    32.5920    -4.2820 h1         1 A6Q       0.066700
     18 H132        61.4450    34.2070    -4.8020 h1         1 A6Q       0.066700
     19 H031        57.8120    34.4290    -8.1970 ha         1 A6Q       0.124000
     20 H051        55.7800    31.1470   -10.0720 ha         1 A6Q       0.120000
     21 H061        54.4140    32.7410   -11.3680 ha         1 A6Q       0.137000
     22 H071        57.4580    30.6490    -8.4870 h4         1 A6Q      -0.005200
     23 H142        63.8200    33.7240    -5.3840 hc         1 A6Q       0.048367
     24 H141        63.3170    32.3250    -6.3340 hc         1 A6Q       0.048367
     25 H143        62.8710    33.9560    -6.8520 hc         1 A6Q       0.048367
     26 H091        59.1110    30.1150    -7.0430 hn         1 A6Q       0.348500
     27 H151        57.0840    36.5410    -8.8880 ho         1 A6Q       0.478000
     28 H161        54.8010    36.2290   -11.0400 ho         1 A6Q       0.487000
     29 O15         56.4080    36.2850    -9.5250 oh         1 A6Q      -0.557100
@<TRIPOS>BOND
     1     1     2 1   
     2     1    13 1   
     3     1    15 2   
     4     2     3 1   
     5     2    16 1   
     6     3    11 1   
     7     3    17 1   
     8     3    18 1   
     9     4     5 ar  
    10     4     9 ar  
    11     4    14 1   
    12     5     6 ar  
    13     5    29 1   
    14     6     7 ar  
    15     6    19 1   
    16     7     8 ar  
    17     7    10 1   
    18     8     9 ar  
    19     8    20 1   
    20     9    21 1   
    21    10    12 2   
    22    10    22 1   
    23    11    23 1   
    24    11    24 1   
    25    11    25 1   
    26    12    13 1   
    27    13    26 1   
    28    14    28 1   
    29    27    29 1   
@<TRIPOS>SUBSTRUCTURE
     1 A6Q         1 TEMP              0 ****  ****    0 ROOT
