@<TRIPOS>MOLECULE
A6S
   63    67     1     0     0
SMALL
No Charge or Current Charge


@<TRIPOS>ATOM
      1 C1          -2.4890    -3.0270    -1.3700 ca         1 A6S      -0.040000
      2 C2          -2.0480    -4.3460    -1.1250 ca         1 A6S      -0.173000
      3 C3          -0.8250    -4.5770    -0.4530 ca         1 A6S       0.186000
      4 O1           8.3480     1.2700     0.3220 os         1 A6S      -0.340100
      5 C11          1.5610    -1.2970     1.9310 ca         1 A6S      -0.184000
      6 C12          2.8150    -1.0680     2.5110 ca         1 A6S       0.360900
      7 C13          3.5420     0.1860     0.6820 cp         1 A6S       0.427500
      8 C14          2.2980    -0.0150     0.0340 ca         1 A6S      -0.177000
      9 C15          4.6610     0.9810     0.0560 cp         1 A6S      -0.119500
     10 C16          6.0140     0.7920     0.4540 ca         1 A6S      -0.102000
     11 C17          7.0660     1.5240    -0.1220 ca         1 A6S       0.134100
     12 C18          6.7850     2.4780    -1.1210 ca         1 A6S      -0.186000
     13 C19          5.4590     2.6910    -1.5290 ca         1 A6S      -0.079000
     14 C20          4.4120     1.9550    -0.9490 ca         1 A6S      -0.133000
     15 C21          9.4940     1.9650    -0.2030 c3         1 A6S       0.148900
     16 C22         -5.1960     1.1980    -1.2200 c3         1 A6S       0.158800
     17 C23         -6.2340     1.5530    -0.1140 c6         1 A6S      -0.061700
     18 C24         -5.6850     2.5960     0.9050 c6         1 A6S      -0.069400
     19 C25         -6.7370     2.9460     1.9870 c6         1 A6S      -0.073400
     20 C26         -8.0550     3.4480     1.3480 c6         1 A6S      -0.075400
     21 C27         -8.6110     2.4150     0.3390 c6         1 A6S      -0.073400
     22 C28         -7.5600     2.0660    -0.7450 c6         1 A6S      -0.069400
     23 C10          1.2910    -0.7660     0.6610 ca         1 A6S       0.057800
     24 C4          -0.0270    -3.5020    -0.0130 ca         1 A6S      -0.168000
     25 C5          -1.6740    -1.9770    -0.9220 ca         1 A6S      -0.107800
     26 C6          -0.4940    -2.2030    -0.2640 ca         1 A6S      -0.006200
     27 C7          -0.7300     0.0910    -0.4250 cc         1 A6S      -0.131100
     28 C8          -1.8220    -0.5340    -1.0230 cd         1 A6S      -0.124400
     29 C9          -2.9750     0.1810    -1.6780 c3         1 A6S       0.233000
     30 F1          -0.4160    -5.8440    -0.2310 f          1 A6S      -0.180000
     31 N1           0.0590    -0.9730     0.0420 na         1 A6S      -0.001500
     32 N2          -3.9880     0.5510    -0.6780 n7         1 A6S      -0.857400
     33 N3           3.7830    -0.3490     1.9020 nb         1 A6S      -0.670000
     34 H1          -3.4240    -2.8350    -1.8910 ha         1 A6S       0.117000
     35 H2          -2.6480    -5.1890    -1.4560 ha         1 A6S       0.132000
     36 H3           0.8150    -1.8780     2.4650 ha         1 A6S       0.140000
     37 H4           3.0540    -1.4710     3.4940 h4         1 A6S       0.026100
     38 H5           2.1250     0.3900    -0.9560 ha         1 A6S       0.136000
     39 H6           6.2590     0.0590     1.2180 ha         1 A6S       0.146000
     40 H7           7.5740     3.0620    -1.5870 ha         1 A6S       0.118000
     41 H8           5.2390     3.4320    -2.2950 ha         1 A6S       0.113000
     42 H9           3.3980     2.1610    -1.2790 ha         1 A6S       0.113000
     43 H10         10.4100     1.6110     0.2870 h1         1 A6S       0.040700
     44 H11          9.5960     1.7890    -1.2820 h1         1 A6S       0.040700
     45 H12          9.4100     3.0450    -0.0280 h1         1 A6S       0.040700
     46 H13         -5.6810     0.5280    -1.9430 h1         1 A6S       0.027200
     47 H14         -4.9270     2.1200    -1.7540 h1         1 A6S       0.027200
     48 H15         -6.4510     0.6180     0.4230 hc         1 A6S       0.041700
     49 H16         -4.7800     2.2100     1.3950 hc         1 A6S       0.042450
     50 H17         -5.3840     3.5110     0.3750 hc         1 A6S       0.042450
     51 H18         -6.9390     2.0610     2.6060 hc         1 A6S       0.037700
     52 H19         -6.3350     3.7140     2.6620 hc         1 A6S       0.037700
     53 H20         -8.7990     3.6420     2.1320 hc         1 A6S       0.037200
     54 H21         -7.8790     4.4050     0.8390 hc         1 A6S       0.037200
     55 H22         -8.9110     1.5010     0.8710 hc         1 A6S       0.037700
     56 H23         -9.5190     2.8110    -0.1370 hc         1 A6S       0.037700
     57 H24         -7.3600     2.9540    -1.3610 hc         1 A6S       0.042450
     58 H25         -7.9720     1.3050    -1.4210 hc         1 A6S       0.042450
     59 H26          0.9140    -3.6810     0.4990 ha         1 A6S       0.139000
     60 H27         -0.4740     1.1360    -0.2960 h4         1 A6S       0.222000
     61 H28         -2.5950     1.0760    -2.1880 h1         1 A6S       0.034700
     62 H29         -3.4110    -0.4750    -2.4440 h1         1 A6S       0.034700
     63 H30         -4.2720    -0.3100    -0.1980 hn         1 A6S       0.410000
@<TRIPOS>BOND
     1     1     2 ar  
     2     1    25 ar  
     3     1    34 1   
     4     2     3 ar  
     5     2    35 1   
     6     3    24 ar  
     7     3    30 1   
     8     4    11 1   
     9     4    15 1   
    10     5     6 ar  
    11     5    23 ar  
    12     5    36 1   
    13     6    33 ar  
    14     6    37 1   
    15     7     8 ar  
    16     7     9 1   
    17     7    33 ar  
    18     8    23 ar  
    19     8    38 1   
    20     9    10 ar  
    21     9    14 ar  
    22    10    11 ar  
    23    10    39 1   
    24    11    12 ar  
    25    12    13 ar  
    26    12    40 1   
    27    13    14 ar  
    28    13    41 1   
    29    14    42 1   
    30    15    43 1   
    31    15    44 1   
    32    15    45 1   
    33    16    17 1   
    34    16    32 1   
    35    16    46 1   
    36    16    47 1   
    37    17    18 1   
    38    17    22 1   
    39    17    48 1   
    40    18    19 1   
    41    18    49 1   
    42    18    50 1   
    43    19    20 1   
    44    19    51 1   
    45    19    52 1   
    46    20    21 1   
    47    20    53 1   
    48    20    54 1   
    49    21    22 1   
    50    21    55 1   
    51    21    56 1   
    52    22    57 1   
    53    22    58 1   
    54    23    31 1   
    55    24    26 ar  
    56    24    59 1   
    57    25    26 ar  
    58    25    28 1   
    59    26    31 1   
    60    27    28 2   
    61    27    31 1   
    62    27    60 1   
    63    28    29 1   
    64    29    32 1   
    65    29    61 1   
    66    29    62 1   
    67    32    63 1   
@<TRIPOS>SUBSTRUCTURE
     1 A6S         1 TEMP              0 ****  ****    0 ROOT
