@<TRIPOS>MOLECULE
A6S
   63    67     1     0     0
SMALL
bcc


@<TRIPOS>ATOM
      1 C1          -2.6840    -2.7970    -0.8610 ca         1 A6S      -0.058000
      2 C2          -2.4120    -4.1010    -0.4980 ca         1 A6S      -0.191000
      3 C3          -1.1940    -4.3960     0.1140 ca         1 A6S       0.150900
      4 O1           8.3020     1.1590    -0.1100 os         1 A6S      -0.316900
      5 C11          1.8550    -1.5260     1.8640 ca         1 A6S      -0.267300
      6 C12          3.1440    -1.3430     2.3350 ca         1 A6S       0.426200
      7 C13          3.6800     0.1190     0.6690 cp         1 A6S       0.492800
      8 C14          2.4200    -0.0210     0.0950 ca         1 A6S      -0.260300
      9 C15          4.6980     1.0020     0.0580 cp         1 A6S      -0.119500
     10 C16          6.0460     0.7210     0.2400 ca         1 A6S      -0.120000
     11 C17          7.0270     1.5290    -0.3340 ca         1 A6S       0.134100
     12 C18          6.6530     2.6400    -1.0860 ca         1 A6S      -0.204000
     13 C19          5.3020     2.9230    -1.2530 ca         1 A6S      -0.097000
     14 C20          4.3250     2.1190    -0.6940 ca         1 A6S      -0.151000
     15 C21          9.3400     1.9260    -0.6870 c3         1 A6S       0.125700
     16 C22         -4.9710     1.3800    -1.2420 c3         1 A6S       0.158800
     17 C23         -6.1810     1.5370    -0.3300 c6         1 A6S      -0.061700
     18 C24         -5.8310     2.2000     1.0020 c6         1 A6S      -0.069400
     19 C25         -7.0620     2.3700     1.8870 c6         1 A6S      -0.073400
     20 C26         -8.1600     3.1490     1.1720 c6         1 A6S      -0.075400
     21 C27         -8.5180     2.4990    -0.1610 c6         1 A6S      -0.073400
     22 C28         -7.2840     2.3210    -1.0400 c6         1 A6S      -0.069400
     23 C10          1.4890    -0.8530     0.7040 ca         1 A6S       0.057800
     24 C4          -0.2310    -3.4550     0.3970 ca         1 A6S      -0.186000
     25 C5          -1.7420    -1.8010    -0.5970 ca         1 A6S      -0.107800
     26 C6          -0.5350    -2.1420     0.0440 ca         1 A6S      -0.006200
     27 C7          -0.5050     0.0510    -0.4150 cc         1 A6S      -0.081100
     28 C8          -1.7000    -0.3930    -0.8770 cd         1 A6S      -0.124400
     29 C9          -2.7780     0.4160    -1.5160 c3         1 A6S       0.233000
     30 F1          -0.9460    -5.6770     0.4400 f          1 A6S      -0.144900
     31 N1           0.2120    -0.9890     0.1530 na         1 A6S      -0.001500
     32 N2          -3.9000     0.6280    -0.6150 n7         1 A6S      -0.802200
     33 N3           4.0360    -0.5470     1.7660 nb         1 A6S      -0.670000
     34 H1          -3.6180    -2.5570    -1.3540 ha         1 A6S       0.135000
     35 H2          -3.1240    -4.8930    -0.6890 ha         1 A6S       0.150000
     36 H3           1.1640    -2.1550     2.4060 ha         1 A6S       0.158000
     37 H4           3.4610    -1.8610     3.2330 h4         1 A6S       0.026100
     38 H5           2.1780     0.4760    -0.8350 ha         1 A6S       0.154000
     39 H6           6.3450    -0.1430     0.8210 ha         1 A6S       0.164000
     40 H7           7.3880     3.2910    -1.5410 ha         1 A6S       0.136000
     41 H8           5.0150     3.7950    -1.8260 ha         1 A6S       0.131000
     42 H9           3.2830     2.3780    -0.8240 ha         1 A6S       0.131000
     43 H10         10.2730     1.4470    -0.4020 h1         1 A6S       0.040700
     44 H11          9.2730     1.9470    -1.7780 h1         1 A6S       0.040700
     45 H12          9.3440     2.9540    -0.3140 h1         1 A6S       0.040700
     46 H13         -5.2970     0.9240    -2.1920 h1         1 A6S       0.027200
     47 H14         -4.5840     2.3730    -1.4990 h1         1 A6S       0.027200
     48 H15         -6.5750     0.5320    -0.1140 hc         1 A6S       0.041700
     49 H16         -5.0670     1.6180     1.5210 hc         1 A6S       0.042450
     50 H17         -5.3890     3.1850     0.8020 hc         1 A6S       0.042450
     51 H18         -7.4430     1.3820     2.1670 hc         1 A6S       0.037700
     52 H19         -6.7870     2.8700     2.8190 hc         1 A6S       0.037700
     53 H20         -9.0470     3.2270     1.8060 hc         1 A6S       0.037200
     54 H21         -7.8150     4.1740     0.9930 hc         1 A6S       0.037200
     55 H22         -8.9740     1.5200     0.0240 hc         1 A6S       0.037700
     56 H23         -9.2680     3.0970    -0.6850 hc         1 A6S       0.037700
     57 H24         -6.8940     3.3070    -1.3200 hc         1 A6S       0.042450
     58 H25         -7.5550     1.8200    -1.9740 hc         1 A6S       0.042450
     59 H26          0.7040    -3.7490     0.8540 ha         1 A6S       0.157000
     60 H27         -0.1050     1.0530    -0.4130 h4         1 A6S       0.172000
     61 H28         -2.3770     1.3940    -1.7970 h1         1 A6S       0.034700
     62 H29         -3.0830    -0.0690    -2.4580 h1         1 A6S       0.034700
     63 H30         -4.2640    -0.2710    -0.3180 hn         1 A6S       0.354800
@<TRIPOS>BOND
     1     1     2 ar  
     2     1    25 ar  
     3     1    34 1   
     4     2     3 ar  
     5     2    35 1   
     6     3    24 ar  
     7     3    30 1   
     8     4    11 1   
     9     4    15 1   
    10     5     6 ar  
    11     5    23 ar  
    12     5    36 1   
    13     6    33 ar  
    14     6    37 1   
    15     7     8 ar  
    16     7     9 1   
    17     7    33 ar  
    18     8    23 ar  
    19     8    38 1   
    20     9    10 ar  
    21     9    14 ar  
    22    10    11 ar  
    23    10    39 1   
    24    11    12 ar  
    25    12    13 ar  
    26    12    40 1   
    27    13    14 ar  
    28    13    41 1   
    29    14    42 1   
    30    15    43 1   
    31    15    44 1   
    32    15    45 1   
    33    16    17 1   
    34    16    32 1   
    35    16    46 1   
    36    16    47 1   
    37    17    18 1   
    38    17    22 1   
    39    17    48 1   
    40    18    19 1   
    41    18    49 1   
    42    18    50 1   
    43    19    20 1   
    44    19    51 1   
    45    19    52 1   
    46    20    21 1   
    47    20    53 1   
    48    20    54 1   
    49    21    22 1   
    50    21    55 1   
    51    21    56 1   
    52    22    57 1   
    53    22    58 1   
    54    23    31 1   
    55    24    26 ar  
    56    24    59 1   
    57    25    26 ar  
    58    25    28 1   
    59    26    31 1   
    60    27    28 2   
    61    27    31 1   
    62    27    60 1   
    63    28    29 1   
    64    29    32 1   
    65    29    61 1   
    66    29    62 1   
    67    32    63 1   
@<TRIPOS>SUBSTRUCTURE
     1 A6S         1 TEMP              0 ****  ****    0 ROOT
