@<TRIPOS>MOLECULE
A6T
   75    80     1     0     0
SMALL
bcc


@<TRIPOS>ATOM
      1 C            5.4150     2.6570    -1.2790 c6         1 A6T       0.121800
      2 CLA          1.6190    -0.3860     5.1740 cl         1 A6T      -0.082400
      3 C36          1.6610    -0.8990     3.5290 ca         1 A6T       0.027400
      4 C33          2.6040    -0.3780     2.6520 ca         1 A6T       0.022400
      5 CLR3         3.7310     0.8070     3.2160 cl         1 A6T      -0.091400
      6 C38          0.7380    -1.8330     3.0860 ca         1 A6T      -0.118000
      7 C37          0.7560    -2.2170     1.7580 ca         1 A6T      -0.114000
      8 C34          1.6890    -1.6860     0.8810 ca         1 A6T      -0.101000
      9 C32          2.6360    -0.7700     1.3140 ca         1 A6T      -0.081300
     10 C29          3.6890    -0.1840     0.4020 c3         1 A6T       0.150300
     11 N26          3.5870    -0.5890    -0.9810 n          1 A6T      -0.439800
     12 C28          3.9820    -1.9600    -1.2290 cx         1 A6T       0.037700
     13 C31          3.3210    -2.9060    -2.1800 cx         1 A6T      -0.134400
     14 C30          4.7390    -2.4540    -2.4210 cx         1 A6T      -0.134400
     15 C22          3.2650     0.2670    -1.9800 c          1 A6T       0.684300
     16 O25          3.1760    -0.0970    -3.1450 o          1 A6T      -0.593100
     17 C20          3.1270     1.7330    -1.6870 ce         1 A6T      -0.169400
     18 C23          4.2370     2.5720    -2.2700 c6         1 A6T       0.169700
     19 N27          3.7200     3.8970    -2.5910 n7         1 A6T      -0.772200
     20 C24          3.2760     4.5500    -1.3630 c6         1 A6T       0.121500
     21 C21          2.0400     3.8000    -0.8670 c6         1 A6T      -0.032200
     22 NB           5.0900     3.3840    -0.0660 n7         1 A6T      -0.803200
     23 CA           4.4140     4.6430    -0.3410 c6         1 A6T       0.122800
     24 C19          2.1060     2.3050    -1.0410 cf         1 A6T      -0.005400
     25 C18          0.9610     1.5390    -0.5050 ca         1 A6T      -0.072800
     26 C16          0.5610     1.7000     0.8220 ca         1 A6T      -0.109000
     27 C14         -0.5060     0.9820     1.3320 ca         1 A6T      -0.126000
     28 C17          0.2410     0.6570    -1.3090 ca         1 A6T      -0.109000
     29 C15         -0.8350    -0.0520    -0.7950 ca         1 A6T      -0.126000
     30 C13         -1.2210     0.0940     0.5330 ca         1 A6T      -0.074300
     31 C12         -2.3900    -0.6650     1.0890 c3         1 A6T      -0.029100
     32 C10         -3.7080     0.0830     0.8770 c3         1 A6T      -0.079400
     33 C8          -4.8660    -0.6750     1.4850 c3         1 A6T       0.140400
     34 O5          -6.0690     0.0670     1.2380 os         1 A6T      -0.317900
     35 C3          -7.1940    -0.5050     1.7000 ca         1 A6T       0.101100
     36 C6          -7.6480    -0.2590     2.9920 ca         1 A6T       0.108900
     37 F1          -6.9130     0.5400     3.7730 f          1 A6T      -0.125900
     38 C2          -7.9550    -1.3490     0.8940 ca         1 A6T      -0.030600
     39 CL11        -7.4420    -1.6890    -0.7070 cl         1 A6T      -0.052400
     40 C4          -9.1340    -1.8940     1.3770 ca         1 A6T       0.138900
     41 F2          -9.8500    -2.6870     0.5780 f          1 A6T      -0.120900
     42 C7          -9.5720    -1.6330     2.6580 ca         1 A6T      -0.144000
     43 C9          -8.8180    -0.8030     3.4760 ca         1 A6T      -0.136000
     44 H            5.7830     1.6620    -1.0140 h1         1 A6T       0.058700
     45 HA           6.2430     3.1690    -1.7810 h1         1 A6T       0.058700
     46 H37          0.0260    -2.9310     1.3990 ha         1 A6T       0.140000
     47 H34          1.6630    -1.9820    -0.1580 ha         1 A6T       0.155000
     48 H29          3.6310     0.9000     0.4530 h1         1 A6T       0.069200
     49 H29A         4.6810    -0.4530     0.7800 h1         1 A6T       0.069200
     50 H28          4.2930    -2.4110    -0.2960 h1         1 A6T       0.080700
     51 H31          3.1440    -3.9140    -1.8270 hc         1 A6T       0.081700
     52 H31A         2.5640    -2.5240    -2.8470 hc         1 A6T       0.081700
     53 H30          4.9150    -1.7920    -3.2550 hc         1 A6T       0.081700
     54 H30A         5.5450    -3.1490    -2.2210 hc         1 A6T       0.081700
     55 H23          4.5870     2.1100    -3.1970 h1         1 A6T       0.093700
     56 HN27         4.4680     4.4430    -3.0060 hn         1 A6T       0.356800
     57 H24          2.9700     5.5700    -1.6120 h1         1 A6T       0.068700
     58 H21          1.8530     4.0420     0.1840 hc         1 A6T       0.061700
     59 H21A         1.1560     4.1580    -1.4050 hc         1 A6T       0.061700
     60 HNB          4.5240     2.8160     0.5520 hn         1 A6T       0.357800
     61 HAA          5.1580     5.3450    -0.7380 h1         1 A6T       0.056200
     62 HAB          4.0590     5.0650     0.6020 h1         1 A6T       0.056200
     63 H16          1.1100     2.3660     1.4760 ha         1 A6T       0.141500
     64 H14         -0.7770     1.1010     2.3740 ha         1 A6T       0.133500
     65 H17          0.5140     0.5290    -2.3490 ha         1 A6T       0.141500
     66 H15         -1.3760    -0.7350    -1.4410 ha         1 A6T       0.133500
     67 H12         -2.4530    -1.6490     0.6170 hc         1 A6T       0.046200
     68 H12A        -2.2340    -0.8390     2.1570 hc         1 A6T       0.046200
     69 H10         -3.6410     1.0770     1.3280 hc         1 A6T       0.063200
     70 H10A        -3.8810     0.2240    -0.1930 hc         1 A6T       0.063200
     71 H8          -4.9500    -1.6730     1.0420 h1         1 A6T       0.035700
     72 H8A         -4.7190    -0.8000     2.5630 h1         1 A6T       0.035700
     73 H7         -10.4940    -2.0700     3.0150 ha         1 A6T       0.160000
     74 H9          -9.1410    -0.5860     4.4840 ha         1 A6T       0.159000
     75 H38          0.0080    -2.2400     3.7720 ha         1 A6T       0.149000
@<TRIPOS>BOND
     1     1    18 1   
     2     1    22 1   
     3     1    44 1   
     4     1    45 1   
     5     2     3 1   
     6     3     4 ar  
     7     3     6 ar  
     8     4     5 1   
     9     4     9 ar  
    10     6     7 ar  
    11     6    75 1   
    12     7     8 ar  
    13     7    46 1   
    14     8     9 ar  
    15     8    47 1   
    16     9    10 1   
    17    10    11 1   
    18    10    48 1   
    19    10    49 1   
    20    11    12 1   
    21    11    15 1   
    22    12    13 1   
    23    12    14 1   
    24    12    50 1   
    25    13    14 1   
    26    13    51 1   
    27    13    52 1   
    28    14    53 1   
    29    14    54 1   
    30    15    16 2   
    31    15    17 1   
    32    17    18 1   
    33    17    24 2   
    34    18    19 1   
    35    18    55 1   
    36    19    20 1   
    37    19    56 1   
    38    20    21 1   
    39    20    23 1   
    40    20    57 1   
    41    21    24 1   
    42    21    58 1   
    43    21    59 1   
    44    22    23 1   
    45    22    60 1   
    46    23    61 1   
    47    23    62 1   
    48    24    25 1   
    49    25    26 ar  
    50    25    28 ar  
    51    26    27 ar  
    52    26    63 1   
    53    27    30 ar  
    54    27    64 1   
    55    28    29 ar  
    56    28    65 1   
    57    29    30 ar  
    58    29    66 1   
    59    30    31 1   
    60    31    32 1   
    61    31    67 1   
    62    31    68 1   
    63    32    33 1   
    64    32    69 1   
    65    32    70 1   
    66    33    34 1   
    67    33    71 1   
    68    33    72 1   
    69    34    35 1   
    70    35    36 ar  
    71    35    38 ar  
    72    36    37 1   
    73    36    43 ar  
    74    38    39 1   
    75    38    40 ar  
    76    40    41 1   
    77    40    42 ar  
    78    42    43 ar  
    79    42    73 1   
    80    43    74 1   
@<TRIPOS>SUBSTRUCTURE
     1 A6T         1 TEMP              0 ****  ****    0 ROOT
