@<TRIPOS>MOLECULE
A6T
   75    80     1     0     0
SMALL
No Charge or Current Charge


@<TRIPOS>ATOM
      1 C            5.3750     2.9440    -1.7070 c6         1 A6T       0.121800
      2 ClA          1.8080     0.2040     5.4000 cl         1 A6T      -0.174000
      3 C36          1.8400    -0.5180     3.7910 ca         1 A6T       0.119000
      4 C33          2.7600    -0.0800     2.8130 ca         1 A6T       0.114000
      5 ClR3         3.9060     1.2110     3.2080 cl         1 A6T      -0.183000
      6 C38          0.9300    -1.5440     3.4960 ca         1 A6T      -0.100000
      7 C37          0.9260    -2.1290     2.2210 ca         1 A6T      -0.096000
      8 C34          1.8270    -1.6860     1.2390 ca         1 A6T      -0.083000
      9 C32          2.7650    -0.6640     1.5230 ca         1 A6T      -0.081300
     10 C29          3.7860    -0.1770     0.4810 c3         1 A6T       0.150300
     11 N26          3.6690    -0.7070    -0.9090 n          1 A6T      -0.372800
     12 C28          4.0760    -2.1300    -1.0210 cx         1 A6T       0.037700
     13 C31          3.6110    -3.0750    -2.1050 cx         1 A6T      -0.134400
     14 C30          5.0720    -2.6900    -2.0110 cx         1 A6T      -0.134400
     15 C22          3.5390     0.1840    -2.0230 c          1 A6T       0.617300
     16 O25          3.7700    -0.2020    -3.1610 o          1 A6T      -0.593100
     17 C20          3.1920     1.6370    -1.8140 ce         1 A6T      -0.169400
     18 C23          4.1150     2.6050    -2.5790 c6         1 A6T       0.169700
     19 N27          3.3680     3.8430    -2.9240 n7         1 A6T      -0.827400
     20 C24          2.9340     4.5270    -1.6820 c6         1 A6T       0.121500
     21 C21          1.8860     3.6450    -0.9480 c6         1 A6T      -0.032200
     22 NB           5.0190     3.6910    -0.4630 n7         1 A6T      -0.858400
     23 CA           4.1680     4.8770    -0.7700 c6         1 A6T       0.122800
     24 C19          2.1500     2.1160    -1.0500 cf         1 A6T      -0.005400
     25 C18          1.0570     1.3280    -0.4330 ca         1 A6T      -0.072800
     26 C16          0.5660     1.6290     0.8570 ca         1 A6T      -0.091000
     27 C14         -0.5130     0.9110     1.3970 ca         1 A6T      -0.108000
     28 C17          0.4410     0.2930    -1.1660 ca         1 A6T      -0.091000
     29 C15         -0.6400    -0.4230    -0.6260 ca         1 A6T      -0.108000
     30 C13         -1.1240    -0.1190     0.6600 ca         1 A6T      -0.074300
     31 C12         -2.2900    -0.8980     1.2500 c3         1 A6T      -0.029100
     32 C10         -3.6410    -0.2000     0.9940 c3         1 A6T      -0.079400
     33 C8          -4.8370    -0.9700     1.5850 c3         1 A6T       0.163600
     34 O5          -6.0240    -0.2200     1.2800 os         1 A6T      -0.341100
     35 C3          -7.3100    -0.6000     1.6530 ca         1 A6T       0.101100
     36 C6          -7.6210    -1.7840     2.3860 ca         1 A6T       0.144000
     37 F1          -6.6710    -2.6580     2.7890 f          1 A6T      -0.161000
     38 C2          -8.3670     0.2590     1.2720 ca         1 A6T       0.061000
     39 Cl11        -8.0250     1.7380     0.3630 cl         1 A6T      -0.144000
     40 C4          -9.6980    -0.0540     1.6110 ca         1 A6T       0.174000
     41 F2         -10.7070     0.7690     1.2450 f          1 A6T      -0.156000
     42 C7          -9.9940    -1.2200     2.3310 ca         1 A6T      -0.126000
     43 C9          -8.9550    -2.0830     2.7170 ca         1 A6T      -0.118000
     44 H            5.9020     2.0140    -1.4440 h1         1 A6T       0.058700
     45 HA           6.0700     3.5500    -2.3080 h1         1 A6T       0.058700
     46 H37          0.2120    -2.9160     1.9870 ha         1 A6T       0.122000
     47 H34          1.7730    -2.1400     0.2550 ha         1 A6T       0.137000
     48 H29          3.7820     0.9170     0.4730 h1         1 A6T       0.069200
     49 H29A         4.7840    -0.4520     0.8490 h1         1 A6T       0.069200
     50 H28          4.1320    -2.5460    -0.0140 h1         1 A6T       0.080700
     51 H31          3.3320    -4.0810    -1.8040 hc         1 A6T       0.081700
     52 H31A         3.0270    -2.6740    -2.9280 hc         1 A6T       0.081700
     53 H30          5.4800    -2.0330    -2.7740 hc         1 A6T       0.081700
     54 H30A         5.7700    -3.4390    -1.6480 hc         1 A6T       0.081700
     55 H23          4.4620     2.1340    -3.5120 h1         1 A6T       0.093700
     56 HN27         4.0040     4.4690    -3.4330 hn         1 A6T       0.412000
     57 H24          2.4440     5.4770    -1.9470 h1         1 A6T       0.068700
     58 H21          1.8290     3.9640     0.1000 hc         1 A6T       0.061700
     59 H21A         0.8960     3.8470    -1.3770 hc         1 A6T       0.061700
     60 HNB          4.4570     3.0610     0.1200 hn         1 A6T       0.413000
     61 HAA          4.7810     5.6310    -1.2870 h1         1 A6T       0.056200
     62 HAB          3.8200     5.3370     0.1670 h1         1 A6T       0.056200
     63 H16          1.0250     2.4100     1.4570 ha         1 A6T       0.123500
     64 H14         -0.8730     1.1530     2.3950 ha         1 A6T       0.115500
     65 H17          0.7820     0.0570    -2.1710 ha         1 A6T       0.123500
     66 H15         -1.1050    -1.2140    -1.2100 ha         1 A6T       0.115500
     67 H12         -2.3200    -1.9110     0.8290 hc         1 A6T       0.046200
     68 H12A        -2.1470    -1.0220     2.3310 hc         1 A6T       0.046200
     69 H10         -3.6150     0.8070     1.4260 hc         1 A6T       0.063200
     70 H10A        -3.7880    -0.0850    -0.0870 hc         1 A6T       0.063200
     71 H8          -4.8820    -1.9710     1.1360 h1         1 A6T       0.035700
     72 H8A         -4.7050    -1.0680     2.6700 h1         1 A6T       0.035700
     73 H7         -11.0250    -1.4520     2.5880 ha         1 A6T       0.142000
     74 H9          -9.1800    -2.9890     3.2760 ha         1 A6T       0.141000
     75 H38          0.2250    -1.8800     4.2520 ha         1 A6T       0.131000
@<TRIPOS>BOND
     1     1    18 1   
     2     1    22 1   
     3     1    44 1   
     4     1    45 1   
     5     2     3 1   
     6     3     4 ar  
     7     3     6 ar  
     8     4     5 1   
     9     4     9 ar  
    10     6     7 ar  
    11     6    75 1   
    12     7     8 ar  
    13     7    46 1   
    14     8     9 ar  
    15     8    47 1   
    16     9    10 1   
    17    10    11 1   
    18    10    48 1   
    19    10    49 1   
    20    11    12 1   
    21    11    15 1   
    22    12    13 1   
    23    12    14 1   
    24    12    50 1   
    25    13    14 1   
    26    13    51 1   
    27    13    52 1   
    28    14    53 1   
    29    14    54 1   
    30    15    16 2   
    31    15    17 1   
    32    17    18 1   
    33    17    24 2   
    34    18    19 1   
    35    18    55 1   
    36    19    20 1   
    37    19    56 1   
    38    20    21 1   
    39    20    23 1   
    40    20    57 1   
    41    21    24 1   
    42    21    58 1   
    43    21    59 1   
    44    22    23 1   
    45    22    60 1   
    46    23    61 1   
    47    23    62 1   
    48    24    25 1   
    49    25    26 ar  
    50    25    28 ar  
    51    26    27 ar  
    52    26    63 1   
    53    27    30 ar  
    54    27    64 1   
    55    28    29 ar  
    56    28    65 1   
    57    29    30 ar  
    58    29    66 1   
    59    30    31 1   
    60    31    32 1   
    61    31    67 1   
    62    31    68 1   
    63    32    33 1   
    64    32    69 1   
    65    32    70 1   
    66    33    34 1   
    67    33    71 1   
    68    33    72 1   
    69    34    35 1   
    70    35    36 ar  
    71    35    38 ar  
    72    36    37 1   
    73    36    43 ar  
    74    38    39 1   
    75    38    40 ar  
    76    40    41 1   
    77    40    42 ar  
    78    42    43 ar  
    79    42    73 1   
    80    43    74 1   
@<TRIPOS>SUBSTRUCTURE
     1 A6T         1 TEMP              0 ****  ****    0 ROOT
