@<TRIPOS>MOLECULE
A6V
   51    52     1     0     0
SMALL
No Charge or Current Charge


@<TRIPOS>ATOM
      1 O1           4.6820    -1.2310     1.0550 oh         1 A6V      -0.651000
      2 C9           4.0320    -0.8340    -0.1570 c3         1 A6V       0.214600
      3 C10          5.0770    -0.2650    -1.1460 c3         1 A6V      -0.115400
      4 C11          6.0740    -1.3260    -1.6560 c3         1 A6V       0.148800
      5 N            7.0140    -0.7510    -2.6360 n8         1 A6V      -0.995200
      6 C8           2.9140     0.1590     0.1700 ca         1 A6V      -0.073300
      7 C7           3.1990     1.4660     0.6210 ca         1 A6V      -0.141000
      8 C6           2.1580     2.3610     0.9190 ca         1 A6V      -0.072000
      9 C5           0.8200     1.9610     0.7740 ca         1 A6V      -0.201000
     10 C12          1.5660    -0.2340     0.0330 ca         1 A6V      -0.138000
     11 C4           0.5200     0.6550     0.3300 ca         1 A6V       0.147100
     12 O           -0.7720     0.2030     0.1690 os         1 A6V      -0.344100
     13 C3          -1.9160     1.0310     0.4450 c3         1 A6V       0.204800
     14 C2          -3.1790     0.2180     0.0810 c2         1 A6V      -0.127400
     15 C13         -4.0500    -0.2230     1.2900 c6         1 A6V       0.003200
     16 C14         -3.2560    -1.2860     2.1080 c3         1 A6V      -0.082600
     17 C15         -4.3890     0.9720     2.2390 c3         1 A6V      -0.082600
     18 C16         -5.4150    -0.8430     0.7870 c6         1 A6V      -0.068400
     19 C17         -5.2900    -1.7940    -0.4430 c6         1 A6V      -0.071400
     20 C18         -4.6700    -1.0010    -1.6070 c6         1 A6V      -0.044200
     21 C1          -3.4710    -0.1310    -1.2040 c2         1 A6V      -0.071400
     22 C           -2.6510     0.2820    -2.4220 c3         1 A6V      -0.057900
     23 H1           4.7680    -0.4200     1.6000 ho         1 A6V       0.438000
     24 H2           3.5770    -1.7140    -0.6340 h1         1 A6V       0.077700
     25 H3           4.5440     0.1590    -2.0060 hc         1 A6V       0.056200
     26 H4           5.6310     0.5560    -0.6760 hc         1 A6V       0.056200
     27 H5           6.6490    -1.7370    -0.8130 h1         1 A6V       0.033200
     28 H6           5.5250    -2.1490    -2.1350 h1         1 A6V       0.033200
     29 H7           7.5900    -0.0400    -2.1680 hn         1 A6V       0.390500
     30 H8           7.6950    -1.4700    -2.9080 hn         1 A6V       0.390500
     31 H10          4.2280     1.7960     0.7430 ha         1 A6V       0.108000
     32 H11          2.3910     3.3660     1.2630 ha         1 A6V       0.110000
     33 H12          0.0350     2.6730     1.0110 ha         1 A6V       0.116000
     34 H13          1.3230    -1.2370    -0.3060 ha         1 A6V       0.126000
     35 H14         -1.8710     1.3610     1.4970 h1         1 A6V       0.038200
     36 H15         -1.8880     1.9400    -0.1690 h1         1 A6V       0.038200
     37 H16         -3.8500    -1.6730     2.9440 hc         1 A6V       0.035033
     38 H17         -2.9700    -2.1400     1.4820 hc         1 A6V       0.035033
     39 H18         -2.3330    -0.8690     2.5300 hc         1 A6V       0.035033
     40 H19         -4.7960     1.8210     1.6760 hc         1 A6V       0.035033
     41 H20         -5.1420     0.6820     2.9820 hc         1 A6V       0.035033
     42 H21         -3.5220     1.3300     2.8050 hc         1 A6V       0.035033
     43 H22         -5.9110    -1.3750     1.6110 hc         1 A6V       0.041200
     44 H23         -6.1000    -0.0280     0.5130 hc         1 A6V       0.041200
     45 H24         -4.6560    -2.6550    -0.1910 hc         1 A6V       0.044200
     46 H25         -6.2740    -2.1910    -0.7290 hc         1 A6V       0.044200
     47 H26         -4.3700    -1.7160    -2.3860 hc         1 A6V       0.047200
     48 H27         -5.4360    -0.3590    -2.0640 hc         1 A6V       0.047200
     49 H28         -2.2200    -0.5970    -2.9170 hc         1 A6V       0.043033
     50 H29         -3.2790     0.7990    -3.1560 hc         1 A6V       0.043033
     51 H30         -1.8220     0.9550    -2.1850 hc         1 A6V       0.043033
@<TRIPOS>BOND
     1     1     2 1   
     2     1    23 1   
     3     2     3 1   
     4     2     6 1   
     5     2    24 1   
     6     3     4 1   
     7     3    25 1   
     8     3    26 1   
     9     4     5 1   
    10     4    27 1   
    11     4    28 1   
    12     5    29 1   
    13     5    30 1   
    14     6     7 ar  
    15     6    10 ar  
    16     7     8 ar  
    17     7    31 1   
    18     8     9 ar  
    19     8    32 1   
    20     9    11 ar  
    21     9    33 1   
    22    10    11 ar  
    23    10    34 1   
    24    11    12 1   
    25    12    13 1   
    26    13    14 1   
    27    13    35 1   
    28    13    36 1   
    29    14    15 1   
    30    14    21 2   
    31    15    16 1   
    32    15    17 1   
    33    15    18 1   
    34    16    37 1   
    35    16    38 1   
    36    16    39 1   
    37    17    40 1   
    38    17    41 1   
    39    17    42 1   
    40    18    19 1   
    41    18    43 1   
    42    18    44 1   
    43    19    20 1   
    44    19    45 1   
    45    19    46 1   
    46    20    21 1   
    47    20    47 1   
    48    20    48 1   
    49    21    22 1   
    50    22    49 1   
    51    22    50 1   
    52    22    51 1   
@<TRIPOS>SUBSTRUCTURE
     1 A6V         1 TEMP              0 ****  ****    0 ROOT
