@<TRIPOS>MOLECULE
A6V
   51    52     1     0     0
SMALL
abcg2


@<TRIPOS>ATOM
      1 O1           4.9570    -0.7930     1.2530 oh         1 A6V      -0.651000
      2 C9           4.0220    -0.7540     0.1960 c3         1 A6V       0.214600
      3 C10          4.6720    -0.4240    -1.1460 c3         1 A6V      -0.115400
      4 C11          5.7480    -1.4160    -1.5640 c3         1 A6V       0.148800
      5 N            6.2730    -1.0670    -2.8780 n8         1 A6V      -0.995200
      6 C8           2.8810     0.2000     0.4790 ca         1 A6V      -0.073300
      7 C7           3.1200     1.4740     0.9960 ca         1 A6V      -0.141000
      8 C6           2.0600     2.3370     1.2080 ca         1 A6V      -0.072000
      9 C5           0.7520     1.9620     0.9180 ca         1 A6V      -0.201000
     10 C12          1.5810    -0.1790     0.1900 ca         1 A6V      -0.138000
     11 C4           0.5080     0.6920     0.4040 ca         1 A6V       0.147100
     12 O           -0.7110     0.2140     0.0910 os         1 A6V      -0.344100
     13 C3          -1.8490     1.0320     0.3510 c3         1 A6V       0.204800
     14 C2          -3.0830     0.2400     0.0090 c2         1 A6V      -0.127400
     15 C13         -3.9040    -0.2800     1.1820 c6         1 A6V       0.003200
     16 C14         -3.0610    -1.2710     1.9950 c3         1 A6V      -0.082600
     17 C15         -4.3250     0.8770     2.1020 c3         1 A6V      -0.082600
     18 C16         -5.1930    -0.9570     0.6960 c6         1 A6V      -0.068400
     19 C17         -4.9840    -1.8090    -0.5420 c6         1 A6V      -0.071400
     20 C18         -4.5030    -0.9260    -1.6790 c6         1 A6V      -0.044200
     21 C1          -3.3720    -0.0210    -1.2740 c2         1 A6V      -0.071400
     22 C           -2.5880     0.5100    -2.4390 c3         1 A6V      -0.057900
     23 H1           5.5480    -0.0370     1.1790 ho         1 A6V       0.438000
     24 H2           3.6080    -1.7670     0.1350 h1         1 A6V       0.077700
     25 H3           3.8940    -0.3980    -1.9140 hc         1 A6V       0.056200
     26 H4           5.0930     0.5890    -1.1030 hc         1 A6V       0.056200
     27 H5           6.5230    -1.4690    -0.7880 h1         1 A6V       0.033200
     28 H6           5.3040    -2.4130    -1.6260 h1         1 A6V       0.033200
     29 H7           6.7650    -0.1840    -2.8140 hn         1 A6V       0.390500
     30 H8           6.9750    -1.7450    -3.1470 hn         1 A6V       0.390500
     31 H10          4.1250     1.8010     1.2330 ha         1 A6V       0.108000
     32 H11          2.2450     3.3250     1.6110 ha         1 A6V       0.110000
     33 H12         -0.0490     2.6660     1.0990 ha         1 A6V       0.116000
     34 H13          1.3780    -1.1710    -0.2010 ha         1 A6V       0.126000
     35 H14         -1.8450     1.3280     1.4030 h1         1 A6V       0.038200
     36 H15         -1.7890     1.9550    -0.2350 h1         1 A6V       0.038200
     37 H16         -3.6060    -1.5950     2.8840 hc         1 A6V       0.035033
     38 H17         -2.8050    -2.1590     1.4140 hc         1 A6V       0.035033
     39 H18         -2.1250    -0.8230     2.3340 hc         1 A6V       0.035033
     40 H19         -4.8760     1.6390     1.5490 hc         1 A6V       0.035033
     41 H20         -4.9790     0.5010     2.8930 hc         1 A6V       0.035033
     42 H21         -3.4810     1.3620     2.5950 hc         1 A6V       0.035033
     43 H22         -5.6160    -1.5470     1.5140 hc         1 A6V       0.041200
     44 H23         -5.9360    -0.1850     0.4640 hc         1 A6V       0.041200
     45 H24         -4.2450    -2.5920    -0.3480 hc         1 A6V       0.044200
     46 H25         -5.9100    -2.3160    -0.8190 hc         1 A6V       0.044200
     47 H26         -4.1780    -1.5350    -2.5280 hc         1 A6V       0.047200
     48 H27         -5.3310    -0.3170    -2.0630 hc         1 A6V       0.047200
     49 H28         -2.0000    -0.2870    -2.9000 hc         1 A6V       0.043033
     50 H29         -3.2710     0.8720    -3.2120 hc         1 A6V       0.043033
     51 H30         -1.9060     1.3210    -2.1950 hc         1 A6V       0.043033
@<TRIPOS>BOND
     1     1     2 1   
     2     1    23 1   
     3     2     3 1   
     4     2     6 1   
     5     2    24 1   
     6     3     4 1   
     7     3    25 1   
     8     3    26 1   
     9     4     5 1   
    10     4    27 1   
    11     4    28 1   
    12     5    29 1   
    13     5    30 1   
    14     6     7 ar  
    15     6    10 ar  
    16     7     8 ar  
    17     7    31 1   
    18     8     9 ar  
    19     8    32 1   
    20     9    11 ar  
    21     9    33 1   
    22    10    11 ar  
    23    10    34 1   
    24    11    12 1   
    25    12    13 1   
    26    13    14 1   
    27    13    35 1   
    28    13    36 1   
    29    14    15 1   
    30    14    21 2   
    31    15    16 1   
    32    15    17 1   
    33    15    18 1   
    34    16    37 1   
    35    16    38 1   
    36    16    39 1   
    37    17    40 1   
    38    17    41 1   
    39    17    42 1   
    40    18    19 1   
    41    18    43 1   
    42    18    44 1   
    43    19    20 1   
    44    19    45 1   
    45    19    46 1   
    46    20    21 1   
    47    20    47 1   
    48    20    48 1   
    49    21    22 1   
    50    22    49 1   
    51    22    50 1   
    52    22    51 1   
@<TRIPOS>SUBSTRUCTURE
     1 A6V         1 TEMP              0 ****  ****    0 ROOT
