@<TRIPOS>MOLECULE
A6W
   24    25     1     0     0
SMALL
bcc


@<TRIPOS>ATOM
      1 C10         -4.5860     0.4400    -0.2110 cc         1 A6W      -0.114100
      2 C9          -4.0060     1.6330     0.1000 cd         1 A6W      -0.148000
      3 C8          -2.5970     1.5420     0.2030 cd         1 A6W      -0.135000
      4 C7          -2.1240     0.2780    -0.0320 cc         1 A6W      -0.009100
      5 C4           1.1020    -1.5970     0.0900 cd         1 A6W       0.250600
      6 C5          -0.3190    -1.4820     0.0750 cd         1 A6W      -0.233000
      7 C6          -0.7570    -0.1910    -0.0060 cc         1 A6W       0.067900
      8 C3           1.7120    -0.3510     0.0180 cc         1 A6W      -0.260700
      9 C2           3.1250    -0.0900    -0.0010 c          1 A6W       0.701700
     10 O1           3.3900     1.2140    -0.0720 os         1 A6W      -0.421900
     11 O2           3.9880    -0.9470     0.0390 o          1 A6W      -0.575000
     12 S1           0.5450     0.9330    -0.0740 ss         1 A6W      -0.010800
     13 S2          -3.4240    -0.8020    -0.3890 ss         1 A6W      -0.063800
     14 H1          -5.6350     0.2240    -0.3460 h4         1 A6W       0.170000
     15 H2          -4.5640     2.5440     0.2580 ha         1 A6W       0.155000
     16 H3          -1.9610     2.3790     0.4590 ha         1 A6W       0.157000
     17 H4          -0.9780    -2.3370     0.1470 ha         1 A6W       0.155000
     18 H5           5.2820     1.2950     0.8070 h1         1 A6W       0.046367
     19 H6           5.2770     1.2110    -0.9680 h1         1 A6W       0.046367
     20 H7           4.7550     2.6950    -0.1470 h1         1 A6W       0.046367
     21 H8           2.7230    -2.8240     0.0520 hn         1 A6W       0.435300
     22 H9           1.2170    -3.6240     0.0130 hn         1 A6W       0.435300
     23 N1           1.7310    -2.7840     0.2140 nv         1 A6W      -0.830200
     24 C1           4.7590     1.6100    -0.0960 c3         1 A6W       0.133700
@<TRIPOS>BOND
     1     1     2 2   
     2     1    13 1   
     3     1    14 1   
     4     2     3 1   
     5     2    15 1   
     6     3     4 2   
     7     3    16 1   
     8     4     7 1   
     9     4    13 1   
    10     5     6 1   
    11     5     8 2   
    12     5    23 1   
    13     6     7 2   
    14     6    17 1   
    15     7    12 1   
    16     8     9 1   
    17     8    12 1   
    18     9    10 1   
    19     9    11 2   
    20    10    24 1   
    21    18    24 1   
    22    19    24 1   
    23    20    24 1   
    24    21    23 1   
    25    22    23 1   
@<TRIPOS>SUBSTRUCTURE
     1 A6W         1 TEMP              0 ****  ****    0 ROOT
