@<TRIPOS>MOLECULE
A6W
   24    25     1     0     0
SMALL
No Charge or Current Charge


@<TRIPOS>ATOM
      1 C10         -4.6890     0.3710     0.0030 cc         1 A6W      -0.241000
      2 C9          -4.0610     1.5930    -0.0060 cd         1 A6W      -0.130000
      3 C8          -2.6420     1.5060     0.0040 cd         1 A6W      -0.117000
      4 C7          -2.1850     0.2110     0.0200 cc         1 A6W      -0.154000
      5 C4           1.0830    -1.5140     0.0580 cd         1 A6W       0.389000
      6 C5          -0.3300    -1.4270     0.0500 cd         1 A6W      -0.215000
      7 C6          -0.7880    -0.1320     0.0320 cc         1 A6W      -0.077000
      8 C3           1.7100    -0.3050     0.0420 cc         1 A6W      -0.405600
      9 C2           3.1590    -0.0810     0.0220 c          1 A6W       0.652700
     10 O1           3.4940     1.2470     0.0150 os         1 A6W      -0.445100
     11 O2           3.9900    -0.9800     0.0090 o          1 A6W      -0.526000
     12 S1           0.5500     1.0170     0.0310 ss         1 A6W       0.279000
     13 S2          -3.5170    -0.9450     0.0240 ss         1 A6W       0.226000
     14 H1          -5.7470     0.1440    -0.0010 h4         1 A6W       0.152000
     15 H2          -4.5990     2.5370    -0.0190 ha         1 A6W       0.137000
     16 H3          -1.9980     2.3810    -0.0010 ha         1 A6W       0.139000
     17 H4          -0.9740    -2.2980     0.0590 ha         1 A6W       0.137000
     18 H5           5.4070     1.2000     0.8780 h1         1 A6W       0.046367
     19 H6           5.3800     1.1980    -0.9040 h1         1 A6W       0.046367
     20 H7           5.0100     2.6870    -0.0090 h1         1 A6W       0.046367
     21 H8           2.6870    -2.7570    -0.0690 hn         1 A6W       0.490500
     22 H9           1.1450    -3.5540    -0.1770 hn         1 A6W       0.490500
     23 N1           1.6790    -2.7270     0.0770 nv         1 A6W      -1.079000
     24 C1           4.8900     1.5960    -0.0060 c3         1 A6W       0.156900
@<TRIPOS>BOND
     1     1     2 2   
     2     1    13 1   
     3     1    14 1   
     4     2     3 1   
     5     2    15 1   
     6     3     4 2   
     7     3    16 1   
     8     4     7 1   
     9     4    13 1   
    10     5     6 1   
    11     5     8 2   
    12     5    23 1   
    13     6     7 2   
    14     6    17 1   
    15     7    12 1   
    16     8     9 1   
    17     8    12 1   
    18     9    10 1   
    19     9    11 2   
    20    10    24 1   
    21    18    24 1   
    22    19    24 1   
    23    20    24 1   
    24    21    23 1   
    25    22    23 1   
@<TRIPOS>SUBSTRUCTURE
     1 A6W         1 TEMP              0 ****  ****    0 ROOT
