@<TRIPOS>MOLECULE
A6X
   79    84     1     0     0
SMALL
abcg2


@<TRIPOS>ATOM
      1 C13        -16.9540    -3.9840   -17.2240 ca         1 A6X       0.049000
      2 C15        -16.0440    -2.3280   -18.7240 ca         1 A6X       0.095100
      3 C17        -16.6820    -4.5050   -19.5420 ca         1 A6X      -0.151600
      4 C21        -16.7220    -5.4640   -20.6920 c          1 A6X       0.624700
      5 C22        -17.0290     0.4430   -14.9190 c3         1 A6X      -0.192400
      6 C24        -16.1910     1.6270   -14.4860 c          1 A6X       0.607100
      7 C28        -17.4950    -5.5370   -23.0550 ca         1 A6X       0.002000
      8 C01        -18.4420    -1.0420   -12.4140 cc         1 A6X       0.592900
      9 N02        -18.2070    -2.0350   -13.2370 nd         1 A6X      -0.594800
     10 N03        -18.1880    -3.2480   -12.6840 na         1 A6X       0.291900
     11 C04        -18.3890    -3.5630   -11.3740 cd         1 A6X      -0.146000
     12 C05        -18.6190    -2.4860   -10.4890 cd         1 A6X       0.005000
     13 C06        -18.6380    -1.2330   -11.0000 cc         1 A6X      -0.196000
     14 C07        -17.9540    -4.4170   -13.3600 cd         1 A6X      -0.018800
     15 C08        -18.0440    -5.4010   -12.3850 cc         1 A6X      -0.014400
     16 N09        -18.3080    -4.8750   -11.1790 nc         1 A6X      -0.265600
     17 N10        -18.5300     0.1970   -12.9330 nu         1 A6X      -0.926100
     18 C11        -17.6410    -4.4130   -14.7250 ch         1 A6X      -0.071300
     19 C12        -17.3480    -4.2800   -15.8900 cg         1 A6X      -0.119000
     20 C14        -16.4310    -2.7080   -17.4540 ca         1 A6X      -0.100000
     21 C16        -16.1690    -3.2300   -19.7710 ca         1 A6X      -0.103000
     22 C18        -17.0890    -4.9120   -18.2680 ca         1 A6X      -0.003300
     23 O19        -15.5640    -1.0770   -18.9470 os         1 A6X      -0.369100
     24 C23        -18.4410     0.4670   -14.3470 c3         1 A6X       0.249800
     25 N25        -14.9610     1.7290   -15.0270 ns         1 A6X      -0.510900
     26 N26        -17.3500    -4.9660   -21.7920 ns         1 A6X      -0.147000
     27 O27        -16.2210    -6.5690   -20.6300 o          1 A6X      -0.556100
     28 C29        -18.1770    -4.7740   -24.0060 ca         1 A6X      -0.163000
     29 C30        -18.3760    -5.2630   -25.2840 ca         1 A6X       0.037800
     30 C31        -17.8830    -6.5100   -25.6520 ca         1 A6X      -0.105000
     31 C32        -17.1860    -7.2450   -24.7120 ca         1 A6X      -0.151300
     32 C33        -16.9890    -6.7840   -23.4150 ca         1 A6X      -0.099000
     33 N34        -19.0800    -4.4890   -26.2230 na         1 A6X      -0.085300
     34 C35        -18.8070    -4.3790   -27.5680 cc         1 A6X      -0.218000
     35 C36        -19.7550    -3.5410   -28.0750 cd         1 A6X       0.254300
     36 N37        -20.6060    -3.1470   -27.0720 nd         1 A6X      -0.667000
     37 C38        -20.1780    -3.7260   -25.9870 cc         1 A6X       0.408400
     38 C39        -19.9090    -3.0690   -29.4770 c3         1 A6X      -0.110400
     39 O40        -16.6060     2.4500   -13.6800 o          1 A6X      -0.620100
     40 C41        -14.1880    -0.8880   -18.6110 c3         1 A6X       0.162600
     41 C42        -13.8960     0.5970   -18.5400 c3         1 A6X      -0.074400
     42 C43        -14.6690     1.3640   -17.4710 c3         1 A6X      -0.101400
     43 C44        -14.3750     0.8870   -16.0500 c3         1 A6X       0.106000
     44 C45        -16.6550    -8.6050   -25.0570 c3         1 A6X       0.358300
     45 F46        -15.3590    -8.7270   -24.7460 f          1 A6X      -0.109000
     46 F47        -17.3040    -9.5650   -24.3830 f          1 A6X      -0.109000
     47 F48        -16.7760    -8.8890   -26.3550 f          1 A6X      -0.109000
     48 H1         -16.8870    -7.0050   -17.8110 hc         1 A6X       0.059033
     49 H2         -18.3070    -6.2430   -17.1120 hc         1 A6X       0.059033
     50 H3         -18.2730    -6.6330   -18.8240 hc         1 A6X       0.059033
     51 H4         -17.1000     0.4190   -16.0100 hc         1 A6X       0.077200
     52 H5         -16.5300    -0.4880   -14.6360 hc         1 A6X       0.077200
     53 H6         -18.7740    -2.6790    -9.4370 ha         1 A6X       0.149000
     54 H7         -18.8140    -0.3720   -10.3700 ha         1 A6X       0.135000
     55 H8         -17.9160    -6.4620   -12.5350 h4         1 A6X       0.235000
     56 H9         -18.5620     0.9770   -12.3000 hn         1 A6X       0.515000
     57 H10        -16.3390    -2.0120   -16.6300 ha         1 A6X       0.131000
     58 H11        -15.8500    -2.9330   -20.7640 ha         1 A6X       0.129000
     59 H12        -18.9050     1.4350   -14.5260 h1         1 A6X       0.064200
     60 H13        -19.0390    -0.2730   -14.8800 h1         1 A6X       0.064200
     61 H14        -14.4360     2.5490   -14.7590 hn         1 A6X       0.315500
     62 H15        -17.7900    -4.0640   -21.6780 hn         1 A6X       0.162000
     63 H16        -18.5380    -3.7870   -23.7440 ha         1 A6X       0.129000
     64 H17        -18.0620    -6.8880   -26.6490 ha         1 A6X       0.147000
     65 H18        -16.4510    -7.3830   -22.6980 ha         1 A6X       0.168000
     66 H19        -17.9650    -4.8690   -28.0270 h4         1 A6X       0.162000
     67 H20        -20.6290    -3.6550   -25.0080 h5         1 A6X       0.057100
     68 H21        -20.8880    -3.3330   -29.8800 hc         1 A6X       0.045367
     69 H22        -19.8140    -1.9840   -29.5450 hc         1 A6X       0.045367
     70 H23        -19.1510    -3.5110   -30.1220 hc         1 A6X       0.045367
     71 H24        -13.9640    -1.3790   -17.6580 h1         1 A6X       0.035700
     72 H25        -13.5550    -1.3590   -19.3720 h1         1 A6X       0.035700
     73 H26        -12.8220     0.7030   -18.3610 hc         1 A6X       0.055200
     74 H27        -14.0860     1.0460   -19.5170 hc         1 A6X       0.055200
     75 H28        -14.4010     2.4210   -17.5440 hc         1 A6X       0.054200
     76 H29        -15.7430     1.3090   -17.6650 hc         1 A6X       0.054200
     77 H30        -14.7120    -0.1390   -15.9030 h1         1 A6X       0.049200
     78 H31        -13.2960     0.8780   -15.8860 h1         1 A6X       0.049200
     79 C20        -17.6700    -6.2680   -17.9950 c3         1 A6X      -0.056800
@<TRIPOS>BOND
     1     1    19 1   
     2     1    20 ar  
     3     1    22 ar  
     4     2    20 ar  
     5     2    21 ar  
     6     2    23 1   
     7     3     4 1   
     8     3    21 ar  
     9     3    22 ar  
    10     4    26 1   
    11     4    27 2   
    12     5     6 1   
    13     5    24 1   
    14     5    51 1   
    15     5    52 1   
    16     6    25 1   
    17     6    39 2   
    18     7    26 1   
    19     7    28 ar  
    20     7    32 ar  
    21     8     9 2   
    22     8    13 1   
    23     8    17 1   
    24     9    10 1   
    25    10    11 1   
    26    10    14 1   
    27    11    12 1   
    28    11    16 2   
    29    12    13 2   
    30    12    53 1   
    31    13    54 1   
    32    14    15 2   
    33    14    18 1   
    34    15    16 1   
    35    15    55 1   
    36    17    24 1   
    37    17    56 1   
    38    18    19 3   
    39    20    57 1   
    40    21    58 1   
    41    22    79 1   
    42    23    40 1   
    43    24    59 1   
    44    24    60 1   
    45    25    43 1   
    46    25    61 1   
    47    26    62 1   
    48    28    29 ar  
    49    28    63 1   
    50    29    30 ar  
    51    29    33 1   
    52    30    31 ar  
    53    30    64 1   
    54    31    32 ar  
    55    31    44 1   
    56    32    65 1   
    57    33    34 1   
    58    33    37 1   
    59    34    35 2   
    60    34    66 1   
    61    35    36 1   
    62    35    38 1   
    63    36    37 2   
    64    37    67 1   
    65    38    68 1   
    66    38    69 1   
    67    38    70 1   
    68    40    41 1   
    69    40    71 1   
    70    40    72 1   
    71    41    42 1   
    72    41    73 1   
    73    41    74 1   
    74    42    43 1   
    75    42    75 1   
    76    42    76 1   
    77    43    77 1   
    78    43    78 1   
    79    44    45 1   
    80    44    46 1   
    81    44    47 1   
    82    48    79 1   
    83    49    79 1   
    84    50    79 1   
@<TRIPOS>SUBSTRUCTURE
     1 A6X         1 TEMP              0 ****  ****    0 ROOT
