@<TRIPOS>MOLECULE
A6X
   79    84     1     0     0
SMALL
No Charge or Current Charge


@<TRIPOS>ATOM
      1 C13        -16.5450    -4.2620   -17.1270 ca         1 A6X       0.049000
      2 C15        -15.9530    -2.5880   -18.7860 ca         1 A6X       0.095100
      3 C17        -16.7300    -4.8030   -19.5170 ca         1 A6X      -0.151600
      4 C21        -17.0250    -5.7500   -20.6740 c          1 A6X       0.624700
      5 C22        -18.0940     0.5440   -15.1780 c3         1 A6X      -0.192400
      6 C24        -17.4240     1.9140   -15.0360 c          1 A6X       0.607100
      7 C28        -17.7650    -5.6320   -23.1360 ca         1 A6X       0.002000
      8 C01        -17.8730    -1.1790   -12.2150 cc         1 A6X       0.592900
      9 N02        -17.6180    -2.1360   -13.0930 nd         1 A6X      -0.594800
     10 N03        -17.2500    -3.3050   -12.4500 na         1 A6X       0.291900
     11 C04        -17.1650    -3.4830   -11.0920 cd         1 A6X      -0.146000
     12 C05        -17.4360    -2.4270   -10.1750 cd         1 A6X       0.005000
     13 C06        -17.7950    -1.2430   -10.7790 cc         1 A6X      -0.196000
     14 C07        -16.8960    -4.4600   -13.1030 cd         1 A6X      -0.018800
     15 C08        -16.6210    -5.3260   -12.0640 cc         1 A6X      -0.014400
     16 N09        -16.7890    -4.7240   -10.8280 nc         1 A6X      -0.265600
     17 N10        -18.2650     0.0250   -12.7340 nu         1 A6X      -0.926100
     18 C11        -16.7860    -4.6000   -14.5110 ch         1 A6X      -0.071300
     19 C12        -16.6810    -4.5220   -15.7230 cg         1 A6X      -0.119000
     20 C14        -16.0910    -2.9760   -17.4520 ca         1 A6X      -0.100000
     21 C16        -16.2840    -3.4850   -19.8080 ca         1 A6X      -0.103000
     22 C18        -16.8750    -5.1960   -18.1470 ca         1 A6X      -0.003300
     23 O19        -15.5330    -1.3180   -19.1080 os         1 A6X      -0.369100
     24 C23        -19.0150     0.2110   -13.9920 c3         1 A6X       0.249800
     25 N25        -16.0540     2.0030   -15.1480 ns         1 A6X      -0.510900
     26 N26        -17.4130    -5.1270   -21.8540 ns         1 A6X      -0.147000
     27 O27        -16.8630    -6.9620   -20.5870 o          1 A6X      -0.556100
     28 C29        -17.9170    -4.7000   -24.1780 ca         1 A6X      -0.163000
     29 C30        -18.2710    -5.1150   -25.4770 ca         1 A6X       0.037800
     30 C31        -18.4750    -6.4850   -25.7290 ca         1 A6X      -0.105000
     31 C32        -18.3280    -7.4390   -24.7000 ca         1 A6X      -0.151300
     32 C33        -17.9820    -7.0010   -23.4030 ca         1 A6X      -0.099000
     33 N34        -18.4210    -4.1770   -26.5040 na         1 A6X      -0.085300
     34 C35        -18.0800    -4.3850   -27.8180 cc         1 A6X      -0.218000
     35 C36        -18.4200    -3.2030   -28.4290 cd         1 A6X       0.254300
     36 N37        -18.9560    -2.3000   -27.5250 nd         1 A6X      -0.667000
     37 C38        -18.9480    -2.9170   -26.3480 cc         1 A6X       0.408400
     38 C39        -18.2630    -2.8530   -29.8810 c3         1 A6X      -0.110400
     39 O40        -18.0690     2.9230   -14.7950 o          1 A6X      -0.620100
     40 C41        -14.3720    -0.7430   -18.4730 c3         1 A6X       0.162600
     41 C42        -14.5140     0.7930   -18.5070 c3         1 A6X      -0.074400
     42 C43        -15.5700     1.3680   -17.5270 c3         1 A6X      -0.101400
     43 C44        -15.2100     1.1880   -16.0310 c3         1 A6X       0.106000
     44 C45        -18.5720    -8.9300   -24.9730 c3         1 A6X       0.358300
     45 F46        -17.7650    -9.7250   -24.2340 f          1 A6X      -0.109000
     46 F47        -19.8450    -9.2800   -24.6820 f          1 A6X      -0.109000
     47 F48        -18.3570    -9.2630   -26.2670 f          1 A6X      -0.109000
     48 H1         -16.6500    -7.3530   -17.8940 hc         1 A6X       0.059033
     49 H2         -17.7860    -6.6500   -16.7440 hc         1 A6X       0.059033
     50 H3         -18.2760    -6.8580   -18.4050 hc         1 A6X       0.059033
     51 H4         -18.7090     0.5780   -16.0840 hc         1 A6X       0.077200
     52 H5         -17.3630    -0.2560   -15.3170 hc         1 A6X       0.077200
     53 H6         -17.3650    -2.5440    -9.0970 ha         1 A6X       0.149000
     54 H7         -18.0300    -0.3690   -10.1850 ha         1 A6X       0.135000
     55 H8         -16.2880    -6.3570   -12.1290 h4         1 A6X       0.235000
     56 H9         -18.4020     0.7360   -12.0180 hn         1 A6X       0.515000
     57 H10        -15.8780    -2.2680   -16.6560 ha         1 A6X       0.131000
     58 H11        -16.1510    -3.1490   -20.8330 ha         1 A6X       0.129000
     59 H12        -19.7550     1.0160   -13.8720 h1         1 A6X       0.064200
     60 H13        -19.5820    -0.7010   -14.2320 h1         1 A6X       0.064200
     61 H14        -15.6850     2.9120   -14.8980 hn         1 A6X       0.315500
     62 H15        -17.4760    -4.1200   -21.7830 hn         1 A6X       0.162000
     63 H16        -17.7450    -3.6450   -23.9740 ha         1 A6X       0.129000
     64 H17        -18.7660    -6.8070   -26.7260 ha         1 A6X       0.147000
     65 H18        -17.8980    -7.7390   -22.6100 ha         1 A6X       0.168000
     66 H19        -17.6360    -5.2930   -28.2040 h4         1 A6X       0.162000
     67 H20        -19.3020    -2.5270   -25.4000 h5         1 A6X       0.057100
     68 H21        -19.2320    -2.6120   -30.3330 hc         1 A6X       0.045367
     69 H22        -17.6050    -1.9860   -30.0060 hc         1 A6X       0.045367
     70 H23        -17.8290    -3.6880   -30.4430 hc         1 A6X       0.045367
     71 H24        -14.2550    -1.0730   -17.4350 h1         1 A6X       0.035700
     72 H25        -13.4670    -1.0410   -19.0180 h1         1 A6X       0.035700
     73 H26        -13.5380     1.2390   -18.2770 hc         1 A6X       0.055200
     74 H27        -14.7610     1.1040   -19.5290 hc         1 A6X       0.055200
     75 H28        -15.6730     2.4410   -17.7330 hc         1 A6X       0.054200
     76 H29        -16.5480     0.9150   -17.7310 hc         1 A6X       0.054200
     77 H30        -15.2740     0.1310   -15.7410 h1         1 A6X       0.049200
     78 H31        -14.1710     1.5060   -15.8770 h1         1 A6X       0.049200
     79 C20        -17.4220    -6.5840   -17.7740 c3         1 A6X      -0.056800
@<TRIPOS>BOND
     1     1    19 1   
     2     1    20 ar  
     3     1    22 ar  
     4     2    20 ar  
     5     2    21 ar  
     6     2    23 1   
     7     3     4 1   
     8     3    21 ar  
     9     3    22 ar  
    10     4    26 1   
    11     4    27 2   
    12     5     6 1   
    13     5    24 1   
    14     5    51 1   
    15     5    52 1   
    16     6    25 1   
    17     6    39 2   
    18     7    26 1   
    19     7    28 ar  
    20     7    32 ar  
    21     8     9 2   
    22     8    13 1   
    23     8    17 1   
    24     9    10 1   
    25    10    11 1   
    26    10    14 1   
    27    11    12 1   
    28    11    16 2   
    29    12    13 2   
    30    12    53 1   
    31    13    54 1   
    32    14    15 2   
    33    14    18 1   
    34    15    16 1   
    35    15    55 1   
    36    17    24 1   
    37    17    56 1   
    38    18    19 3   
    39    20    57 1   
    40    21    58 1   
    41    22    79 1   
    42    23    40 1   
    43    24    59 1   
    44    24    60 1   
    45    25    43 1   
    46    25    61 1   
    47    26    62 1   
    48    28    29 ar  
    49    28    63 1   
    50    29    30 ar  
    51    29    33 1   
    52    30    31 ar  
    53    30    64 1   
    54    31    32 ar  
    55    31    44 1   
    56    32    65 1   
    57    33    34 1   
    58    33    37 1   
    59    34    35 2   
    60    34    66 1   
    61    35    36 1   
    62    35    38 1   
    63    36    37 2   
    64    37    67 1   
    65    38    68 1   
    66    38    69 1   
    67    38    70 1   
    68    40    41 1   
    69    40    71 1   
    70    40    72 1   
    71    41    42 1   
    72    41    73 1   
    73    41    74 1   
    74    42    43 1   
    75    42    75 1   
    76    42    76 1   
    77    43    77 1   
    78    43    78 1   
    79    44    45 1   
    80    44    46 1   
    81    44    47 1   
    82    48    79 1   
    83    49    79 1   
    84    50    79 1   
@<TRIPOS>SUBSTRUCTURE
     1 A6X         1 TEMP              0 ****  ****    0 ROOT
