@<TRIPOS>MOLECULE
A6Y
   47    50     1     0     0
SMALL
No Charge or Current Charge


@<TRIPOS>ATOM
      1 C7           2.8420     1.9970    -1.1480 ca         1 A6Y      -0.109000
      2 C6           3.1310     3.0440    -2.0470 ca         1 A6Y      -0.094000
      3 C11         -1.7110    -1.2830     2.1470 ca         1 A6Y      -0.140500
      4 C5           2.2320     4.1240    -2.1930 ca         1 A6Y      -0.131000
      5 C4           1.0370     4.1630    -1.4430 ca         1 A6Y      -0.051000
      6 C3           0.7650     3.1120    -0.5540 ca         1 A6Y       0.077400
      7 N2          -0.3500     2.9620     0.2550 nc         1 A6Y      -0.604100
      8 C12         -2.3320    -2.4450     1.6530 ca         1 A6Y       0.333900
      9 C20         -2.9990    -1.3600    -0.2780 ca         1 A6Y       0.333900
     10 C28          0.7370    -3.7230     0.2430 ca         1 A6Y      -0.106000
     11 C26          1.1990    -1.3250     0.2510 ca         1 A6Y      -0.110300
     12 C27          1.2550    -2.5870     0.8940 ca         1 A6Y      -0.080300
     13 C29          0.1740    -3.6210    -1.0380 ca         1 A6Y      -0.097000
     14 C31          0.6420    -1.2410    -1.0470 ca         1 A6Y      -0.093000
     15 O22         -2.1010     2.1290     2.2360 oh         1 A6Y      -0.647000
     16 C9          -1.0770     1.1810     1.8770 c3         1 A6Y       0.221300
     17 C10         -1.7400    -0.1030     1.3800 ca         1 A6Y      -0.077300
     18 N19         -2.9760    -2.4910     0.4640 nb         1 A6Y      -0.661000
     19 C21         -2.4020    -0.1560     0.1370 ca         1 A6Y      -0.140500
     20 C2          -0.0960     1.7850     0.8740 cd         1 A6Y       0.377800
     21 N3           1.1290     1.2010     0.5070 na         1 A6Y      -0.163600
     22 C8           1.6470     2.0730    -0.4140 ca         1 A6Y      -0.077200
     23 C25          1.8640    -2.7500     2.2840 c3         1 A6Y      -0.050800
     24 C30          0.1290    -2.3790    -1.6910 ca         1 A6Y      -0.065300
     25 H1           3.5280     1.1610    -1.0350 ha         1 A6Y       0.122000
     26 H2           4.0490     3.0180    -2.6310 ha         1 A6Y       0.114000
     27 H3          -1.2170    -1.3110     3.1140 ha         1 A6Y       0.125500
     28 H4           2.4600     4.9290    -2.8890 ha         1 A6Y       0.116000
     29 H5           0.3370     4.9880    -1.5530 ha         1 A6Y       0.129000
     30 H6          -2.3180    -3.3670     2.2320 h4         1 A6Y       0.018600
     31 H7          -3.5170    -1.4190    -1.2350 h4         1 A6Y       0.018600
     32 H10          0.7670    -4.6950     0.7310 ha         1 A6Y       0.113000
     33 H11         -0.2250    -4.5090    -1.5230 ha         1 A6Y       0.117000
     34 H12          0.6010    -0.2870    -1.5670 ha         1 A6Y       0.123000
     35 H13          0.0550    -1.5200    -3.6870 hc         1 A6Y       0.045367
     36 H14         -0.4400    -3.2150    -3.6190 hc         1 A6Y       0.045367
     37 H15         -1.5290    -1.9520    -3.0220 hc         1 A6Y       0.045367
     38 H16         -1.9720     2.8770     1.6040 ho         1 A6Y       0.485000
     39 H17         -0.4920     0.9330     2.7730 h1         1 A6Y       0.071700
     40 H18         -2.4590     0.7190    -0.5050 ha         1 A6Y       0.125500
     41 H19          1.2430    -2.2660     3.0470 hc         1 A6Y       0.041367
     42 H20          1.9610    -3.8060     2.5650 hc         1 A6Y       0.041367
     43 H21          2.8670    -2.3110     2.3330 hc         1 A6Y       0.041367
     44 C24          1.7410    -0.0670     0.9450 c3         1 A6Y       0.127900
     45 C32         -0.4790    -2.2610    -3.0800 c3         1 A6Y      -0.047800
     46 H8           1.5800    -0.1450     2.0270 h1         1 A6Y       0.066200
     47 H9           2.8250    -0.0150     0.7900 h1         1 A6Y       0.066200
@<TRIPOS>BOND
     1     1     2 ar  
     2     1    22 ar  
     3     1    25 1   
     4     2     4 ar  
     5     2    26 1   
     6     3     8 ar  
     7     3    17 ar  
     8     3    27 1   
     9     4     5 ar  
    10     4    28 1   
    11     5     6 ar  
    12     5    29 1   
    13     6     7 1   
    14     6    22 ar  
    15     7    20 2   
    16     8    18 ar  
    17     8    30 1   
    18     9    18 ar  
    19     9    19 ar  
    20     9    31 1   
    21    10    12 ar  
    22    10    13 ar  
    23    10    32 1   
    24    11    12 ar  
    25    11    14 ar  
    26    11    44 1   
    27    12    23 1   
    28    13    24 ar  
    29    13    33 1   
    30    14    24 ar  
    31    14    34 1   
    32    15    16 1   
    33    15    38 1   
    34    16    17 1   
    35    16    20 1   
    36    16    39 1   
    37    17    19 ar  
    38    19    40 1   
    39    20    21 1   
    40    21    22 1   
    41    21    44 1   
    42    23    41 1   
    43    23    42 1   
    44    23    43 1   
    45    24    45 1   
    46    35    45 1   
    47    36    45 1   
    48    37    45 1   
    49    44    46 1   
    50    44    47 1   
@<TRIPOS>SUBSTRUCTURE
     1 A6Y         1 TEMP              0 ****  ****    0 ROOT
