@<TRIPOS>MOLECULE
A6Y
   47    50     1     0     0
SMALL
bcc


@<TRIPOS>ATOM
      1 C7           2.8200     1.8170    -1.0650 ca         1 A6Y      -0.127000
      2 C6           3.1120     2.8200    -1.9730 ca         1 A6Y      -0.112000
      3 C11         -1.6410    -1.2700     1.7950 ca         1 A6Y      -0.223800
      4 C5           2.2390     3.8980    -2.1830 ca         1 A6Y      -0.149000
      5 C4           1.0450     4.0060    -1.4910 ca         1 A6Y      -0.069000
      6 C3           0.7360     3.0050    -0.5720 ca         1 A6Y       0.077400
      7 N2          -0.3600     2.8510     0.2450 nc         1 A6Y      -0.604100
      8 C12         -2.2330    -2.3530     1.1590 ca         1 A6Y       0.399200
      9 C20         -3.1880    -1.0170    -0.4070 ca         1 A6Y       0.399200
     10 C28          1.0750    -3.7140     0.2310 ca         1 A6Y      -0.124000
     11 C26          1.1660    -1.3250     0.3570 ca         1 A6Y      -0.110300
     12 C27          1.4710    -2.5730     0.9170 ca         1 A6Y      -0.080300
     13 C29          0.3980    -3.6340    -0.9780 ca         1 A6Y      -0.115000
     14 C31          0.4980    -1.2550    -0.8550 ca         1 A6Y      -0.111000
     15 O22         -2.0880     2.2130     2.1800 oh         1 A6Y      -0.584800
     16 C9          -1.1590     1.2140     1.8790 c3         1 A6Y       0.198100
     17 C10         -1.8300    -0.0020     1.2720 ca         1 A6Y      -0.077300
     18 N19         -2.9960    -2.2390     0.0820 nb         1 A6Y      -0.661000
     19 C21         -2.6300     0.1240     0.1420 ca         1 A6Y      -0.223800
     20 C2          -0.1460     1.7500     0.9040 cd         1 A6Y       0.377800
     21 N3           1.0300     1.1480     0.5880 na         1 A6Y      -0.134300
     22 C8           1.6210     1.9350    -0.3740 ca         1 A6Y      -0.077200
     23 C25          2.1930    -2.6860     2.2280 c3         1 A6Y      -0.050800
     24 C30          0.1010    -2.4010    -1.5410 ca         1 A6Y      -0.065300
     25 H1           3.4950     0.9850    -0.9130 ha         1 A6Y       0.140000
     26 H2           4.0340     2.7710    -2.5360 ha         1 A6Y       0.132000
     27 H3          -1.0340    -1.4290     2.6770 ha         1 A6Y       0.143500
     28 H4           2.5070     4.6600    -2.9030 ha         1 A6Y       0.134000
     29 H5           0.3720     4.8370    -1.6550 ha         1 A6Y       0.147000
     30 H6          -2.0800    -3.3540     1.5450 h4         1 A6Y       0.018600
     31 H7          -3.8170    -0.9420    -1.2870 h4         1 A6Y       0.018600
     32 H10          1.2970    -4.6870     0.6520 ha         1 A6Y       0.131000
     33 H11          0.1010    -4.5450    -1.4840 ha         1 A6Y       0.135000
     34 H12          0.2590    -0.2890    -1.2860 ha         1 A6Y       0.141000
     35 H13         -0.1590    -1.5960    -3.5250 hc         1 A6Y       0.045367
     36 H14         -0.7220    -3.2560    -3.3380 hc         1 A6Y       0.045367
     37 H15         -1.6600    -1.9240    -2.6750 hc         1 A6Y       0.045367
     38 H16         -1.9800     2.9210     1.5280 ho         1 A6Y       0.446000
     39 H17         -0.6480     0.9080     2.8010 h1         1 A6Y       0.071700
     40 H18         -2.8120     1.0870    -0.3180 ha         1 A6Y       0.143500
     41 H19          1.6390    -2.2120     3.0430 hc         1 A6Y       0.041367
     42 H20          2.3430    -3.7290     2.5030 hc         1 A6Y       0.041367
     43 H21          3.1750    -2.2100     2.1960 hc         1 A6Y       0.041367
     44 C24          1.5640    -0.0830     1.1200 c3         1 A6Y       0.098600
     45 C32         -0.6450    -2.2910    -2.8380 c3         1 A6Y      -0.047800
     46 H8           1.2540    -0.1630     2.1630 h1         1 A6Y       0.066200
     47 H9           2.6520     0.0150     1.1540 h1         1 A6Y       0.066200
@<TRIPOS>BOND
     1     1     2 ar  
     2     1    22 ar  
     3     1    25 1   
     4     2     4 ar  
     5     2    26 1   
     6     3     8 ar  
     7     3    17 ar  
     8     3    27 1   
     9     4     5 ar  
    10     4    28 1   
    11     5     6 ar  
    12     5    29 1   
    13     6     7 1   
    14     6    22 ar  
    15     7    20 2   
    16     8    18 ar  
    17     8    30 1   
    18     9    18 ar  
    19     9    19 ar  
    20     9    31 1   
    21    10    12 ar  
    22    10    13 ar  
    23    10    32 1   
    24    11    12 ar  
    25    11    14 ar  
    26    11    44 1   
    27    12    23 1   
    28    13    24 ar  
    29    13    33 1   
    30    14    24 ar  
    31    14    34 1   
    32    15    16 1   
    33    15    38 1   
    34    16    17 1   
    35    16    20 1   
    36    16    39 1   
    37    17    19 ar  
    38    19    40 1   
    39    20    21 1   
    40    21    22 1   
    41    21    44 1   
    42    23    41 1   
    43    23    42 1   
    44    23    43 1   
    45    24    45 1   
    46    35    45 1   
    47    36    45 1   
    48    37    45 1   
    49    44    46 1   
    50    44    47 1   
@<TRIPOS>SUBSTRUCTURE
     1 A6Y         1 TEMP              0 ****  ****    0 ROOT
