@<TRIPOS>MOLECULE
A6Z
   31    32     1     0     0
SMALL
No Charge or Current Charge


@<TRIPOS>ATOM
      1 C12         -5.5640     0.3220    -0.3190 c1         1 A6Z       0.214900
      2 C11         -4.4200     1.2490    -0.3330 c3         1 A6Z       0.171700
      3 C10         -0.6980     0.9580     0.9620 c6         1 A6Z       0.171800
      4 C9          -1.9810     1.6200     0.3920 c6         1 A6Z       0.093600
      5 C8          -2.6110    -0.5660    -0.7020 c6         1 A6Z       0.093600
      6 C7          -1.3240    -1.2190    -0.1310 c6         1 A6Z       0.171800
      7 C4           2.0590     0.4090    -0.3450 ca         1 A6Z      -0.131000
      8 C5           3.4220     0.0790    -0.4150 ca         1 A6Z       0.147000
      9 C6           3.8540    -1.2130    -0.0820 ca         1 A6Z      -0.097000
     10 C3           1.1140    -0.5490     0.0590 ca         1 A6Z       0.261000
     11 C2           1.5540    -1.8460     0.3920 ca         1 A6Z      -0.153000
     12 C1           2.9190    -2.1790     0.3230 ca         1 A6Z      -0.066000
     13 N1          -0.2550    -0.2000     0.1220 nh         1 A6Z      -0.795400
     14 N2          -3.1200     0.5950     0.1880 nx         1 A6Z      -0.664000
     15 N3          -6.4470    -0.4350    -0.2980 n1         1 A6Z      -0.300000
     16 H1          -4.2450     1.6140    -1.3470 hx         1 A6Z       0.127200
     17 H2          -4.6490     2.1170     0.2900 hx         1 A6Z       0.127200
     18 H3           0.0880     1.7250     1.0240 h1         1 A6Z       0.081950
     19 H4          -0.8960     0.6230     1.9910 h1         1 A6Z       0.081950
     20 H5          -2.3380     2.4120     1.0590 hx         1 A6Z       0.108450
     21 H6          -1.7660     2.0710    -0.5810 hx         1 A6Z       0.108450
     22 H7          -2.4090    -0.1540    -1.6960 hx         1 A6Z       0.108450
     23 H8          -3.4100    -1.3080    -0.8030 hx         1 A6Z       0.108450
     24 H9          -1.5730    -1.7500     0.8000 h1         1 A6Z       0.081950
     25 H10         -0.9750    -1.9730    -0.8530 h1         1 A6Z       0.081950
     26 H11          1.7370     1.4090    -0.6180 ha         1 A6Z       0.128000
     27 H12          4.9110    -1.4640    -0.1370 ha         1 A6Z       0.150000
     28 H13          0.8430    -2.6000     0.7170 ha         1 A6Z       0.114000
     29 H14          3.2500    -3.1820     0.5850 ha         1 A6Z       0.134000
     30 H15         -3.3430     0.1910     1.1280 hn         1 A6Z       0.506000
     31 Cl1          4.5900     1.2900    -0.9270 cl         1 A6Z      -0.169000
@<TRIPOS>BOND
     1     1     2 1   
     2     1    15 3   
     3     2    14 1   
     4     2    16 1   
     5     2    17 1   
     6     3     4 1   
     7     3    13 1   
     8     3    18 1   
     9     3    19 1   
    10     4    14 1   
    11     4    20 1   
    12     4    21 1   
    13     5     6 1   
    14     5    14 1   
    15     5    22 1   
    16     5    23 1   
    17     6    13 1   
    18     6    24 1   
    19     6    25 1   
    20     7     8 ar  
    21     7    10 ar  
    22     7    26 1   
    23     8     9 ar  
    24     8    31 1   
    25     9    12 ar  
    26     9    27 1   
    27    10    11 ar  
    28    10    13 1   
    29    11    12 ar  
    30    11    28 1   
    31    12    29 1   
    32    14    30 1   
@<TRIPOS>SUBSTRUCTURE
     1 A6Z         1 TEMP              0 ****  ****    0 ROOT
