@<TRIPOS>MOLECULE
A6Z
   31    32     1     0     0
SMALL
bcc


@<TRIPOS>ATOM
      1 C12         -5.4110     0.2220    -0.2400 c1         1 A6Z       0.125700
      2 C11         -4.3150     1.1770    -0.2900 c3         1 A6Z       0.199900
      3 C10         -0.6890     1.0120     0.7640 c6         1 A6Z       0.171800
      4 C9          -1.9720     1.6180     0.2460 c6         1 A6Z       0.121800
      5 C8          -2.6070    -0.5980    -0.5920 c6         1 A6Z       0.121800
      6 C7          -1.3020    -1.1470    -0.0580 c6         1 A6Z       0.171800
      7 C4           2.0500     0.4560    -0.2030 ca         1 A6Z      -0.149000
      8 C5           3.3800     0.0820    -0.1940 ca         1 A6Z       0.055400
      9 C6           3.7760    -1.2360    -0.0150 ca         1 A6Z      -0.115000
     10 C3           1.0530    -0.5080    -0.0110 ca         1 A6Z       0.122600
     11 C2           1.4410    -1.8370     0.1790 ca         1 A6Z      -0.171000
     12 C1           2.7840    -2.1860     0.1640 ca         1 A6Z      -0.084000
     13 N1          -0.2890    -0.1180    -0.0520 nh         1 A6Z      -0.657000
     14 N2          -3.0530     0.5810     0.2140 nx         1 A6Z      -0.693400
     15 N3          -6.2850    -0.5210    -0.2010 n1         1 A6Z      -0.210800
     16 H1          -4.1600     1.5090    -1.3160 hx         1 A6Z       0.127200
     17 H2          -4.5620     2.0430     0.3250 hx         1 A6Z       0.127200
     18 H3           0.0590     1.8010     0.7380 h1         1 A6Z       0.081950
     19 H4          -0.8090     0.7220     1.8180 h1         1 A6Z       0.081950
     20 H5          -2.3080     2.4250     0.8940 hx         1 A6Z       0.108450
     21 H6          -1.8570     1.9900    -0.7710 hx         1 A6Z       0.108450
     22 H7          -2.5030    -0.2550    -1.6200 hx         1 A6Z       0.108450
     23 H8          -3.3810    -1.3610    -0.5400 hx         1 A6Z       0.108450
     24 H9          -1.4620    -1.5890     0.9370 h1         1 A6Z       0.081950
     25 H10         -1.0210    -1.9550    -0.7320 h1         1 A6Z       0.081950
     26 H11          1.7890     1.4890    -0.3870 ha         1 A6Z       0.146000
     27 H12          4.8220    -1.5100    -0.0150 ha         1 A6Z       0.168000
     28 H13          0.7100    -2.6140     0.3490 ha         1 A6Z       0.132000
     29 H14          3.0610    -3.2210     0.3120 ha         1 A6Z       0.152000
     30 H15         -3.2130     0.2740     1.1780 hn         1 A6Z       0.450800
     31 CL1          4.5890     1.3020    -0.4380 cl         1 A6Z      -0.077400
@<TRIPOS>BOND
     1     1     2 1   
     2     1    15 3   
     3     2    14 1   
     4     2    16 1   
     5     2    17 1   
     6     3     4 1   
     7     3    13 1   
     8     3    18 1   
     9     3    19 1   
    10     4    14 1   
    11     4    20 1   
    12     4    21 1   
    13     5     6 1   
    14     5    14 1   
    15     5    22 1   
    16     5    23 1   
    17     6    13 1   
    18     6    24 1   
    19     6    25 1   
    20     7     8 ar  
    21     7    10 ar  
    22     7    26 1   
    23     8     9 ar  
    24     8    31 1   
    25     9    12 ar  
    26     9    27 1   
    27    10    11 ar  
    28    10    13 1   
    29    11    12 ar  
    30    11    28 1   
    31    12    29 1   
    32    14    30 1   
@<TRIPOS>SUBSTRUCTURE
     1 A6Z         1 TEMP              0 ****  ****    0 ROOT
