@<TRIPOS>MOLECULE
A70
  123   126     1     0     0
SMALL
No Charge or Current Charge


@<TRIPOS>ATOM
      1 N1           4.5730    -2.0350     2.6300 n          1 A70      -0.420800
      2 C            3.2830    -2.1820     2.0830 c          1 A70       0.650100
      3 O            2.4600    -2.8980     2.6340 o          1 A70      -0.619100
      4 C2           4.8680    -2.4280     4.0380 c6         1 A70       0.103000
      5 C3           5.7040    -3.7330     4.1230 c6         1 A70       0.136300
      6 N4           6.9610    -3.6320     3.3270 n3         1 A70      -0.715600
      7 CM           7.8100    -4.8360     3.4490 c3         1 A70       0.152100
      8 C5           6.6520    -3.2890     1.9100 c6         1 A70       0.136300
      9 C6           5.8030    -1.9910     1.7830 c6         1 A70       0.103000
     10 C1           3.4690    -0.1130     0.6210 c6         1 A70       0.073000
     11 C21          3.1660     0.4110    -0.7990 c6         1 A70       0.100000
     12 N            2.9540    -1.4960     0.8880 n          1 A70      -0.413800
     13 C31          1.7200    -1.8850     0.1130 c6         1 A70       0.028700
     14 C4           0.9580    -0.7340    -0.6020 c          1 A70       0.565000
     15 O1          -0.2590    -0.7710    -0.7280 o          1 A70      -0.521000
     16 C9           2.0880    -2.9510    -0.9620 c3         1 A70      -0.025100
     17 C18          0.8920    -3.4560    -1.7650 ca         1 A70      -0.075300
     18 C10          0.8020    -3.2000    -3.1480 ca         1 A70      -0.095500
     19 C15         -0.3190    -3.6310    -3.8780 ca         1 A70      -0.110500
     20 C19         -1.3560    -4.3230    -3.2320 ca         1 A70      -0.107000
     21 C16         -1.2700    -4.5880    -1.8550 ca         1 A70      -0.110500
     22 C17         -0.1490    -4.1570    -1.1240 ca         1 A70      -0.095500
     23 C11          1.0690     1.4830    -1.8100 c3         1 A70       0.038700
     24 N2           1.7200     0.3470    -1.0880 n          1 A70      -0.391800
     25 C7          -0.1120     2.1420    -1.0190 c          1 A70       0.580100
     26 O2          -0.0920     2.2680     0.1990 o          1 A70      -0.586100
     27 C22          0.7530     1.1210    -3.2930 c3         1 A70      -0.073400
     28 C32          1.9550     0.5430    -4.0800 c3         1 A70      -0.072400
     29 C41          1.6030     0.1920    -5.5410 c3         1 A70      -0.077400
     30 C51          2.7900    -0.4110    -6.3170 c3         1 A70      -0.089100
     31 C12         -3.5720     2.2220    -1.0810 c3         1 A70       0.162300
     32 C23         -2.3930     3.2380    -1.2340 c3         1 A70       0.073700
     33 C33         -2.7760     4.4700    -2.0990 c3         1 A70      -0.087400
     34 C1'1        -1.6600     5.5450    -2.3100 c6         1 A70      -0.058700
     35 C2'1        -2.1640     6.6790    -3.2480 c6         1 A70      -0.075400
     36 C3'1        -1.0720     7.7510    -3.4870 c6         1 A70      -0.071400
     37 C4'1        -0.5650     8.3400    -2.1490 c6         1 A70      -0.076400
     38 C5'1        -0.0550     7.2210    -1.2090 c6         1 A70      -0.071400
     39 C6'1        -1.1430     6.1450    -0.9700 c6         1 A70      -0.075400
     40 N21         -1.1780     2.5990    -1.7720 ns         1 A70      -0.504900
     41 O11         -3.7840     1.5460    -2.3300 oh         1 A70      -0.661000
     42 C13         -3.3220     1.1830     0.0490 c3         1 A70      -0.101400
     43 C24         -4.5290     0.2770     0.4610 c3         1 A70      -0.126700
     44 C8          -4.3010    -0.2960     1.8830 c          1 A70       0.601100
     45 O3          -3.3670    -1.0320     2.1700 o          1 A70      -0.600100
     46 C1'2        -4.9520    -0.8350    -0.5640 c3         1 A70      -0.050700
     47 C2'2        -3.8090    -1.7930    -0.9940 c3         1 A70      -0.087100
     48 C3'2        -6.1750    -1.6420    -0.0630 c3         1 A70      -0.087100
     49 C14         -5.2620    -0.3600     4.2110 c3         1 A70       0.101000
     50 N3          -5.2290     0.1020     2.8220 ns         1 A70      -0.508900
     51 C25         -5.8670    -1.7740     4.3320 c3         1 A70      -0.096400
     52 C34         -5.9340    -2.2750     5.7910 c3         1 A70      -0.073400
     53 C42         -6.5370    -3.6880     5.9150 c3         1 A70      -0.089100
     54 H21          5.4300    -1.6150     4.5180 h1         1 A70       0.061450
     55 H22          3.9380    -2.5520     4.6100 h1         1 A70       0.061450
     56 H31          5.9350    -3.9340     5.1800 h1         1 A70       0.041950
     57 H32          5.0900    -4.5710     3.7610 h1         1 A70       0.041950
     58 HM1          7.2950    -5.7220     3.0510 h1         1 A70       0.032033
     59 HM2          8.7490    -4.7060     2.8950 h1         1 A70       0.032033
     60 HM3          8.0620    -5.0280     4.5010 h1         1 A70       0.032033
     61 H51          7.5820    -3.1570     1.3370 h1         1 A70       0.041950
     62 H52          6.0980    -4.1130     1.4360 h1         1 A70       0.041950
     63 H61          5.5440    -1.8750     0.7230 h1         1 A70       0.061450
     64 H62          6.4120    -1.1250     2.0780 h1         1 A70       0.061450
     65 H11          4.5490    -0.0380     0.7870 h1         1 A70       0.062700
     66 H12          3.0010     0.5680     1.3460 h1         1 A70       0.062700
     67 H211         3.5290     1.4440    -0.8870 h1         1 A70       0.047700
     68 H221         3.7080    -0.1970    -1.5370 h1         1 A70       0.047700
     69 H3           0.9810    -2.3250     0.7950 h1         1 A70       0.096700
     70 H'1          2.8470    -2.5390    -1.6390 hc         1 A70       0.055200
     71 H'2          2.5690    -3.8050    -0.4710 hc         1 A70       0.055200
     72 H2           1.5970    -2.6630    -3.6600 ha         1 A70       0.113500
     73 H7          -0.3830    -3.4260    -4.9450 ha         1 A70       0.109000
     74 H4          -2.2250    -4.6540    -3.7970 ha         1 A70       0.108000
     75 H5          -2.0730    -5.1230    -1.3530 ha         1 A70       0.109000
     76 H6          -0.0950    -4.3620    -0.0570 ha         1 A70       0.113500
     77 H1           1.8090     2.2910    -1.8700 h1         1 A70       0.051700
     78 H212        -0.0680     0.3930    -3.3170 hc         1 A70       0.061200
     79 H222         0.4060     2.0170    -3.8220 hc         1 A70       0.061200
     80 H311         2.7770     1.2700    -4.0680 hc         1 A70       0.040200
     81 H321         2.3210    -0.3620    -3.5830 hc         1 A70       0.040200
     82 H41          0.7710    -0.5240    -5.5530 hc         1 A70       0.041700
     83 H42          1.2580     1.0940    -6.0610 hc         1 A70       0.041700
     84 H511         3.6300     0.2940    -6.3510 hc         1 A70       0.031700
     85 H521         3.1340    -1.3380    -5.8410 hc         1 A70       0.031700
     86 H53          2.4950    -0.6430    -7.3470 hc         1 A70       0.031700
     87 H121        -4.4700     2.7950    -0.8100 h1         1 A70       0.069700
     88 H8          -2.1680     3.6150    -0.2280 h1         1 A70       0.085700
     89 H312        -3.1090     4.1100    -3.0800 hc         1 A70       0.052700
     90 H322        -3.6530     4.9460    -1.6430 hc         1 A70       0.052700
     91 H9          -0.8220     5.0420    -2.8120 hc         1 A70       0.035700
     92 H2'1        -2.4760     6.2570    -4.2130 hc         1 A70       0.043200
     93 H2'2        -3.0540     7.1540    -2.8140 hc         1 A70       0.043200
     94 H3'1        -0.2310     7.3070    -4.0380 hc         1 A70       0.036450
     95 H3'2        -1.4710     8.5550    -4.1200 hc         1 A70       0.036450
     96 H4'1         0.2400     9.0630    -2.3400 hc         1 A70       0.038700
     97 H4'2        -1.3750     8.8960    -1.6580 hc         1 A70       0.038700
     98 H5'1         0.8390     6.7520    -1.6430 hc         1 A70       0.036450
     99 H5'2         0.2560     7.6550    -0.2490 hc         1 A70       0.036450
    100 H6'1        -1.9800     6.5850    -0.4090 hc         1 A70       0.043200
    101 H6'2        -0.7220     5.3560    -0.3340 hc         1 A70       0.043200
    102 HN22        -1.1090     2.4920    -2.7750 hn         1 A70       0.306500
    103 HO1         -3.0210     0.9440    -2.4480 ho         1 A70       0.443000
    104 H122        -2.4540     0.5620    -0.1930 hc         1 A70       0.071200
    105 H13         -3.0260     1.7510     0.9390 hc         1 A70       0.071200
    106 H24         -5.3950     0.9460     0.5350 hc         1 A70       0.040700
    107 H1'1        -5.2930    -0.3270    -1.4740 hc         1 A70       0.057700
    108 H2'3        -3.3980    -2.3390    -0.1380 hc         1 A70       0.035033
    109 H2'4        -4.1800    -2.5320    -1.7140 hc         1 A70       0.035033
    110 H2'5        -2.9930    -1.2500    -1.4820 hc         1 A70       0.035033
    111 H3'3        -6.9960    -0.9710     0.2160 hc         1 A70       0.035033
    112 H3'4        -6.5430    -2.3120    -0.8500 hc         1 A70       0.035033
    113 H3'5        -5.9190    -2.2550     0.8090 hc         1 A70       0.035033
    114 H111        -4.2420    -0.3550     4.6160 h1         1 A70       0.055200
    115 H123        -5.8630     0.3470     4.7990 h1         1 A70       0.055200
    116 HN21        -5.9650     0.7200     2.5020 hn         1 A70       0.306500
    117 H213        -6.8770    -1.7690     3.9040 hc         1 A70       0.040200
    118 H223        -5.2690    -2.4760     3.7370 hc         1 A70       0.040200
    119 H313        -4.9240    -2.2800     6.2200 hc         1 A70       0.042200
    120 H323        -6.5330    -1.5770     6.3890 hc         1 A70       0.042200
    121 H411        -6.5640    -4.0010     6.9660 hc         1 A70       0.032700
    122 H421        -7.5620    -3.7080     5.5240 hc         1 A70       0.032700
    123 H43         -5.9380    -4.4160     5.3550 hc         1 A70       0.032700
@<TRIPOS>BOND
     1     1     2 1   
     2     1     4 1   
     3     1     9 1   
     4     2     3 2   
     5     2    12 1   
     6     4     5 1   
     7     4    54 1   
     8     4    55 1   
     9     5     6 1   
    10     5    56 1   
    11     5    57 1   
    12     6     7 1   
    13     6     8 1   
    14     7    58 1   
    15     7    59 1   
    16     7    60 1   
    17     8     9 1   
    18     8    61 1   
    19     8    62 1   
    20     9    63 1   
    21     9    64 1   
    22    10    11 1   
    23    10    12 1   
    24    10    65 1   
    25    10    66 1   
    26    11    24 1   
    27    11    67 1   
    28    11    68 1   
    29    12    13 1   
    30    13    14 1   
    31    13    16 1   
    32    13    69 1   
    33    14    15 2   
    34    14    24 1   
    35    16    17 1   
    36    16    70 1   
    37    16    71 1   
    38    17    18 ar  
    39    17    22 ar  
    40    18    19 ar  
    41    18    72 1   
    42    19    20 ar  
    43    19    73 1   
    44    20    21 ar  
    45    20    74 1   
    46    21    22 ar  
    47    21    75 1   
    48    22    76 1   
    49    23    24 1   
    50    23    25 1   
    51    23    27 1   
    52    23    77 1   
    53    25    26 2   
    54    25    40 1   
    55    27    28 1   
    56    27    78 1   
    57    27    79 1   
    58    28    29 1   
    59    28    80 1   
    60    28    81 1   
    61    29    30 1   
    62    29    82 1   
    63    29    83 1   
    64    30    84 1   
    65    30    85 1   
    66    30    86 1   
    67    31    32 1   
    68    31    41 1   
    69    31    42 1   
    70    31    87 1   
    71    32    33 1   
    72    32    40 1   
    73    32    88 1   
    74    33    34 1   
    75    33    89 1   
    76    33    90 1   
    77    34    35 1   
    78    34    39 1   
    79    34    91 1   
    80    35    36 1   
    81    35    92 1   
    82    35    93 1   
    83    36    37 1   
    84    36    94 1   
    85    36    95 1   
    86    37    38 1   
    87    37    96 1   
    88    37    97 1   
    89    38    39 1   
    90    38    98 1   
    91    38    99 1   
    92    39   100 1   
    93    39   101 1   
    94    40   102 1   
    95    41   103 1   
    96    42    43 1   
    97    42   104 1   
    98    42   105 1   
    99    43    44 1   
   100    43    46 1   
   101    43   106 1   
   102    44    45 2   
   103    44    50 1   
   104    46    47 1   
   105    46    48 1   
   106    46   107 1   
   107    47   108 1   
   108    47   109 1   
   109    47   110 1   
   110    48   111 1   
   111    48   112 1   
   112    48   113 1   
   113    49    50 1   
   114    49    51 1   
   115    49   114 1   
   116    49   115 1   
   117    50   116 1   
   118    51    52 1   
   119    51   117 1   
   120    51   118 1   
   121    52    53 1   
   122    52   119 1   
   123    52   120 1   
   124    53   121 1   
   125    53   122 1   
   126    53   123 1   
@<TRIPOS>SUBSTRUCTURE
     1 A70         1 TEMP              0 ****  ****    0 ROOT
