@<TRIPOS>MOLECULE
A70
  123   126     1     0     0
SMALL
abcg2


@<TRIPOS>ATOM
      1 N1           5.5880    -0.5770     1.9100 n          1 A70      -0.420800
      2 C            4.4620    -1.3350     1.8070 c          1 A70       0.650100
      3 O            4.2680    -2.3320     2.4900 o          1 A70      -0.619100
      4 C2           6.5010    -0.7800     3.0190 c6         1 A70       0.103000
      5 C3           7.7870    -1.4470     2.5630 c6         1 A70       0.136300
      6 N4           8.4030    -0.6740     1.5030 n3         1 A70      -0.715600
      7 CM           9.6710    -1.2360     1.0980 c3         1 A70       0.152100
      8 C5           7.4960    -0.5410     0.3830 c6         1 A70       0.136300
      9 C6           6.1980     0.1360     0.8000 c6         1 A70       0.103000
     10 C1           3.1190     0.4880     0.8450 c6         1 A70       0.073000
     11 C21          2.6300     0.8230    -0.5370 c6         1 A70       0.100000
     12 N            3.5380    -0.9020     0.8680 n          1 A70      -0.413800
     13 C31          2.4770    -1.8380     0.5350 c6         1 A70       0.028700
     14 C4           1.3190    -1.2140    -0.2380 c          1 A70       0.565000
     15 O1           0.2760    -1.8430    -0.3050 o          1 A70      -0.521000
     16 C9           3.0430    -2.9800    -0.3430 c3         1 A70      -0.025100
     17 C18          2.1640    -4.1950    -0.4140 ca         1 A70      -0.075300
     18 C10          1.5050    -4.5590    -1.5830 ca         1 A70      -0.095500
     19 C15          0.7130    -5.6980    -1.6320 ca         1 A70      -0.110500
     20 C19          0.5650    -6.4920    -0.5030 ca         1 A70      -0.107000
     21 C16          1.2200    -6.1410     0.6710 ca         1 A70      -0.110500
     22 C17          2.0150    -5.0050     0.7110 ca         1 A70      -0.095500
     23 C11          0.5270     0.5150    -1.7680 c3         1 A70       0.038700
     24 N2           1.5430    -0.0670    -0.9160 n          1 A70      -0.391800
     25 C7          -0.5330     1.2080    -0.8990 c          1 A70       0.580100
     26 O2          -0.5580     1.0670     0.3110 o          1 A70      -0.586100
     27 C22         -0.0690    -0.4270    -2.8220 c3         1 A70      -0.073400
     28 C32          0.9950    -1.1450    -3.6410 c3         1 A70      -0.072400
     29 C41          0.3970    -2.1080    -4.6590 c3         1 A70      -0.077400
     30 C51          1.4580    -2.8480    -5.4600 c3         1 A70      -0.089100
     31 C12         -3.7770     2.5190    -1.2850 c3         1 A70       0.162300
     32 C23         -2.3290     2.9030    -0.9520 c3         1 A70       0.073700
     33 C33         -1.9960     4.3500    -1.3200 c3         1 A70      -0.087400
     34 C1'1        -0.5870     4.7900    -0.9250 c6         1 A70      -0.058700
     35 C2'1        -0.2880     6.2020    -1.4340 c6         1 A70      -0.075400
     36 C3'1         1.1290     6.6440    -1.0810 c6         1 A70      -0.071400
     37 C4'1         1.3870     6.5530     0.4190 c6         1 A70      -0.076400
     38 C5'1         1.0770     5.1560     0.9440 c6         1 A70      -0.071400
     39 C6'1        -0.3400     4.7240     0.5820 c6         1 A70      -0.075400
     40 N21         -1.3870     1.9930    -1.5810 ns         1 A70      -0.504900
     41 O11         -4.0730     2.7260    -2.6530 oh         1 A70      -0.661000
     42 C13         -4.0930     1.0990    -0.8120 c3         1 A70      -0.101400
     43 C24         -5.5660     0.8540    -0.4640 c3         1 A70      -0.126700
     44 C8          -5.6940    -0.5070     0.2020 c          1 A70       0.601100
     45 O3          -5.2130    -1.5220    -0.2890 o          1 A70      -0.600100
     46 C1'2        -6.5640     1.0060    -1.6330 c3         1 A70      -0.050700
     47 C2'2        -6.3100     0.0710    -2.8110 c3         1 A70      -0.087100
     48 C3'2        -8.0060     0.8620    -1.1500 c3         1 A70      -0.087100
     49 C14         -6.6300    -1.6980     2.1530 c3         1 A70       0.101000
     50 N3          -6.3690    -0.5140     1.3630 ns         1 A70      -0.508900
     51 C25         -7.9370    -1.5600     2.9180 c3         1 A70      -0.096400
     52 C34         -8.2120    -2.7590     3.8160 c3         1 A70      -0.073400
     53 C42         -9.5210    -2.6270     4.5820 c3         1 A70      -0.089100
     54 H21          6.7370     0.1970     3.4510 h1         1 A70       0.061450
     55 H22          6.0190    -1.3760     3.7910 h1         1 A70       0.061450
     56 H31          8.4760    -1.5090     3.4080 h1         1 A70       0.041950
     57 H32          7.5690    -2.4810     2.2410 h1         1 A70       0.041950
     58 HM1          9.5870    -2.2590     0.7000 h1         1 A70       0.032033
     59 HM2         10.1250    -0.6140     0.3250 h1         1 A70       0.032033
     60 HM3         10.3540    -1.2650     1.9480 h1         1 A70       0.032033
     61 H51          7.9690     0.0650    -0.3940 h1         1 A70       0.041950
     62 H52          7.2550    -1.5200    -0.0690 h1         1 A70       0.041950
     63 H61          5.5320     0.1570    -0.0580 h1         1 A70       0.061450
     64 H62          6.3980     1.1710     1.0960 h1         1 A70       0.061450
     65 H11          3.9370     1.1500     1.1150 h1         1 A70       0.062700
     66 H12          2.3150     0.6640     1.5720 h1         1 A70       0.062700
     67 H211         2.2600     1.8500    -0.5360 h1         1 A70       0.047700
     68 H221         3.4470     0.7690    -1.2630 h1         1 A70       0.047700
     69 H3           2.0380    -2.2650     1.4430 h1         1 A70       0.096700
     70 H'1          3.2530    -2.5900    -1.3420 hc         1 A70       0.055200
     71 H'2          4.0060    -3.2750     0.0780 hc         1 A70       0.055200
     72 H2           1.6070    -3.9460    -2.4710 ha         1 A70       0.113500
     73 H7           0.2100    -5.9650    -2.5530 ha         1 A70       0.109000
     74 H4          -0.0520    -7.3810    -0.5380 ha         1 A70       0.108000
     75 H5           1.1160    -6.7560     1.5560 ha         1 A70       0.109000
     76 H6           2.5320    -4.7390     1.6270 ha         1 A70       0.113500
     77 H1           1.0390     1.3030    -2.3320 h1         1 A70       0.051700
     78 H212        -0.7390    -1.1490    -2.3590 hc         1 A70       0.061200
     79 H222        -0.6790     0.1740    -3.5020 hc         1 A70       0.061200
     80 H311         1.6250    -0.4090    -4.1530 hc         1 A70       0.040200
     81 H321         1.6630    -1.7000    -2.9770 hc         1 A70       0.040200
     82 H41         -0.2380    -2.8310    -4.1370 hc         1 A70       0.041700
     83 H42         -0.2630    -1.5600    -5.3390 hc         1 A70       0.041700
     84 H511         2.0870    -2.1540    -6.0200 hc         1 A70       0.031700
     85 H521         2.1140    -3.4270    -4.8070 hc         1 A70       0.031700
     86 H53          1.0100    -3.5400    -6.1740 hc         1 A70       0.031700
     87 H121        -4.4160     3.2230    -0.7380 h1         1 A70       0.069700
     88 H8          -2.2210     2.7780     0.1250 h1         1 A70       0.085700
     89 H312        -2.1270     4.4870    -2.3980 hc         1 A70       0.052700
     90 H322        -2.7310     5.0030    -0.8360 hc         1 A70       0.052700
     91 H9           0.1300     4.1160    -1.4150 hc         1 A70       0.035700
     92 H2'1        -0.4370     6.2480    -2.5170 hc         1 A70       0.043200
     93 H2'2        -1.0070     6.9030    -0.9920 hc         1 A70       0.043200
     94 H3'1         1.8470     6.0050    -1.6090 hc         1 A70       0.036450
     95 H3'2         1.3050     7.6630    -1.4360 hc         1 A70       0.036450
     96 H4'1         2.4210     6.8250     0.6430 hc         1 A70       0.038700
     97 H4'2         0.7550     7.2820     0.9380 hc         1 A70       0.038700
     98 H5'1         1.7900     4.4420     0.5150 hc         1 A70       0.036450
     99 H5'2         1.2160     5.1170     2.0270 hc         1 A70       0.036450
    100 H6'1        -1.0620     5.3780     1.0870 hc         1 A70       0.043200
    101 H6'2        -0.5160     3.7160     0.9630 hc         1 A70       0.043200
    102 HN22        -1.1990     2.1440    -2.5610 hn         1 A70       0.306500
    103 HO1         -3.7270     1.9840    -3.1600 ho         1 A70       0.443000
    104 H122        -3.7380     0.3700    -1.5450 hc         1 A70       0.071200
    105 H13         -3.5070     0.9050     0.0920 hc         1 A70       0.071200
    106 H24         -5.8420     1.6190     0.2720 hc         1 A70       0.040700
    107 H1'1        -6.4450     2.0300    -1.9930 hc         1 A70       0.057700
    108 H2'3        -6.5060    -0.9700    -2.5550 hc         1 A70       0.035033
    109 H2'4        -6.9690     0.3360    -3.6400 hc         1 A70       0.035033
    110 H2'5        -5.2870     0.1340    -3.1800 hc         1 A70       0.035033
    111 H3'3        -8.2170     1.5200    -0.3050 hc         1 A70       0.035033
    112 H3'4        -8.7030     1.1190    -1.9490 hc         1 A70       0.035033
    113 H3'5        -8.2310    -0.1600    -0.8380 hc         1 A70       0.035033
    114 H111        -6.6760    -2.5610     1.4890 h1         1 A70       0.055200
    115 H123        -5.8060    -1.8770     2.8530 h1         1 A70       0.055200
    116 HN21        -6.6940     0.3650     1.7300 hn         1 A70       0.306500
    117 H213        -7.9110    -0.6510     3.5290 hc         1 A70       0.040200
    118 H223        -8.7580    -1.4350     2.2050 hc         1 A70       0.040200
    119 H313        -8.2290    -3.6710     3.2120 hc         1 A70       0.042200
    120 H323        -7.3860    -2.8780     4.5250 hc         1 A70       0.042200
    121 H411        -9.6890    -3.4860     5.2320 hc         1 A70       0.032700
    122 H421        -9.5210    -1.7320     5.2070 hc         1 A70       0.032700
    123 H43        -10.3720    -2.5540     3.9030 hc         1 A70       0.032700
@<TRIPOS>BOND
     1     1     2 1   
     2     1     4 1   
     3     1     9 1   
     4     2     3 2   
     5     2    12 1   
     6     4     5 1   
     7     4    54 1   
     8     4    55 1   
     9     5     6 1   
    10     5    56 1   
    11     5    57 1   
    12     6     7 1   
    13     6     8 1   
    14     7    58 1   
    15     7    59 1   
    16     7    60 1   
    17     8     9 1   
    18     8    61 1   
    19     8    62 1   
    20     9    63 1   
    21     9    64 1   
    22    10    11 1   
    23    10    12 1   
    24    10    65 1   
    25    10    66 1   
    26    11    24 1   
    27    11    67 1   
    28    11    68 1   
    29    12    13 1   
    30    13    14 1   
    31    13    16 1   
    32    13    69 1   
    33    14    15 2   
    34    14    24 1   
    35    16    17 1   
    36    16    70 1   
    37    16    71 1   
    38    17    18 ar  
    39    17    22 ar  
    40    18    19 ar  
    41    18    72 1   
    42    19    20 ar  
    43    19    73 1   
    44    20    21 ar  
    45    20    74 1   
    46    21    22 ar  
    47    21    75 1   
    48    22    76 1   
    49    23    24 1   
    50    23    25 1   
    51    23    27 1   
    52    23    77 1   
    53    25    26 2   
    54    25    40 1   
    55    27    28 1   
    56    27    78 1   
    57    27    79 1   
    58    28    29 1   
    59    28    80 1   
    60    28    81 1   
    61    29    30 1   
    62    29    82 1   
    63    29    83 1   
    64    30    84 1   
    65    30    85 1   
    66    30    86 1   
    67    31    32 1   
    68    31    41 1   
    69    31    42 1   
    70    31    87 1   
    71    32    33 1   
    72    32    40 1   
    73    32    88 1   
    74    33    34 1   
    75    33    89 1   
    76    33    90 1   
    77    34    35 1   
    78    34    39 1   
    79    34    91 1   
    80    35    36 1   
    81    35    92 1   
    82    35    93 1   
    83    36    37 1   
    84    36    94 1   
    85    36    95 1   
    86    37    38 1   
    87    37    96 1   
    88    37    97 1   
    89    38    39 1   
    90    38    98 1   
    91    38    99 1   
    92    39   100 1   
    93    39   101 1   
    94    40   102 1   
    95    41   103 1   
    96    42    43 1   
    97    42   104 1   
    98    42   105 1   
    99    43    44 1   
   100    43    46 1   
   101    43   106 1   
   102    44    45 2   
   103    44    50 1   
   104    46    47 1   
   105    46    48 1   
   106    46   107 1   
   107    47   108 1   
   108    47   109 1   
   109    47   110 1   
   110    48   111 1   
   111    48   112 1   
   112    48   113 1   
   113    49    50 1   
   114    49    51 1   
   115    49   114 1   
   116    49   115 1   
   117    50   116 1   
   118    51    52 1   
   119    51   117 1   
   120    51   118 1   
   121    52    53 1   
   122    52   119 1   
   123    52   120 1   
   124    53   121 1   
   125    53   122 1   
   126    53   123 1   
@<TRIPOS>SUBSTRUCTURE
     1 A70         1 TEMP              0 ****  ****    0 ROOT
