@<TRIPOS>MOLECULE
A73
   27    29     1     0     0
SMALL
No Charge or Current Charge


@<TRIPOS>ATOM
      1 CAB         -1.8420     1.6510    -0.0240 cc         1 A73      -0.383200
      2 CAD         -3.2990     1.7390    -0.0330 c          1 A73       0.595900
      3 OAH         -3.8870     2.8120    -0.0440 o          1 A73      -0.539100
      4 CAE         -4.0170     0.4310    -0.0280 ca         1 A73      -0.226600
      5 CAO         -5.4260     0.3620    -0.0360 ca         1 A73      -0.024000
      6 CAQ         -6.0690    -0.8890    -0.0310 ca         1 A73      -0.146000
      7 CAR         -5.3110    -2.0720    -0.0180 ca         1 A73      -0.057000
      8 CAP         -3.9080    -2.0020    -0.0100 ca         1 A73      -0.141000
      9 CAF         -3.2650    -0.7530    -0.0150 ca         1 A73       0.151100
     10 OAC         -1.8920    -0.7130    -0.0070 os         1 A73      -0.216200
     11 CAA         -1.1640     0.4500    -0.0110 cd         1 A73       0.203900
     12 CAG          0.3090     0.2590    -0.0010 ca         1 A73      -0.060800
     13 CAI          1.1920     1.3650    -0.0040 ca         1 A73      -0.074000
     14 CAM          2.5850     1.1770     0.0060 ca         1 A73      -0.091000
     15 CAK          3.1200    -0.1190     0.0190 ca         1 A73      -0.002900
     16 Br1          5.0160    -0.3730     0.0320 br         1 A73      -0.084100
     17 CAL          2.2630    -1.2290     0.0220 ca         1 A73      -0.091000
     18 CAJ          0.8700    -1.0430     0.0120 ca         1 A73      -0.074000
     19 H1          -1.3410     2.6080    -0.0280 ha         1 A73       0.214000
     20 H2          -6.0250     1.2720    -0.0460 ha         1 A73       0.139000
     21 H3          -7.1550    -0.9400    -0.0380 ha         1 A73       0.123000
     22 H4          -5.8090    -3.0390    -0.0150 ha         1 A73       0.120000
     23 H5          -3.3170    -2.9140    -0.0000 ha         1 A73       0.133000
     24 H6           0.8140     2.3830    -0.0130 ha         1 A73       0.129500
     25 H7           3.2490     2.0380     0.0040 ha         1 A73       0.135000
     26 H8           2.6760    -2.2350     0.0310 ha         1 A73       0.135000
     27 H9           0.2330    -1.9240     0.0140 ha         1 A73       0.129500
@<TRIPOS>BOND
     1     1     2 1   
     2     1    11 2   
     3     1    19 1   
     4     2     3 2   
     5     2     4 1   
     6     4     5 ar  
     7     4     9 ar  
     8     5     6 ar  
     9     5    20 1   
    10     6     7 ar  
    11     6    21 1   
    12     7     8 ar  
    13     7    22 1   
    14     8     9 ar  
    15     8    23 1   
    16     9    10 1   
    17    10    11 1   
    18    11    12 1   
    19    12    13 ar  
    20    12    18 ar  
    21    13    14 ar  
    22    13    24 1   
    23    14    15 ar  
    24    14    25 1   
    25    15    16 1   
    26    15    17 ar  
    27    17    18 ar  
    28    17    26 1   
    29    18    27 1   
@<TRIPOS>SUBSTRUCTURE
     1 A73         1 TEMP              0 ****  ****    0 ROOT
