@<TRIPOS>MOLECULE
A73
   27    29     1     0     0
SMALL
bcc


@<TRIPOS>ATOM
      1 CAB         -1.8160     1.6120    -0.2480 cc         1 A73      -0.333200
      2 CAD         -3.2570     1.7200    -0.2770 c          1 A73       0.595900
      3 OAH         -3.8480     2.7800    -0.4390 o          1 A73      -0.539100
      4 CAE         -3.9590     0.4410    -0.1070 ca         1 A73      -0.226600
      5 CAO         -5.3550     0.3560    -0.1220 ca         1 A73      -0.042000
      6 CAQ         -5.9830    -0.8600     0.0380 ca         1 A73      -0.164000
      7 CAR         -5.2220    -2.0190     0.2160 ca         1 A73      -0.075000
      8 CAP         -3.8440    -1.9630     0.2330 ca         1 A73      -0.159000
      9 CAF         -3.2240    -0.7280     0.0700 ca         1 A73       0.151100
     10 OAC         -1.8710    -0.7160     0.1010 os         1 A73      -0.216200
     11 CAA         -1.1960     0.4280    -0.0570 cd         1 A73       0.203900
     12 CAG          0.2580     0.2330    -0.0150 ca         1 A73      -0.060800
     13 CAI          1.0990     1.2900     0.3340 ca         1 A73      -0.092000
     14 CAM          2.4730     1.1260     0.3610 ca         1 A73      -0.109000
     15 CAK          3.0130    -0.1110     0.0380 ca         1 A73      -0.002900
     16 BR1          4.8820    -0.3440     0.0720 br         1 A73      -0.084100
     17 CAL          2.1970    -1.1790    -0.3060 ca         1 A73      -0.109000
     18 CAJ          0.8240    -1.0040    -0.3260 ca         1 A73      -0.092000
     19 H1          -1.2260     2.5050    -0.4030 ha         1 A73       0.164000
     20 H2          -5.9340     1.2590    -0.2620 ha         1 A73       0.157000
     21 H3          -7.0620    -0.9200     0.0260 ha         1 A73       0.141000
     22 H4          -5.7150    -2.9730     0.3450 ha         1 A73       0.138000
     23 H5          -3.2470    -2.8550     0.3730 ha         1 A73       0.151000
     24 H6           0.6900     2.2520     0.6110 ha         1 A73       0.147500
     25 H7           3.1040     1.9580     0.6430 ha         1 A73       0.153000
     26 H8           2.6150    -2.1430    -0.5610 ha         1 A73       0.153000
     27 H9           0.2030    -1.8450    -0.6030 ha         1 A73       0.147500
@<TRIPOS>BOND
     1     1     2 1   
     2     1    11 2   
     3     1    19 1   
     4     2     3 2   
     5     2     4 1   
     6     4     5 ar  
     7     4     9 ar  
     8     5     6 ar  
     9     5    20 1   
    10     6     7 ar  
    11     6    21 1   
    12     7     8 ar  
    13     7    22 1   
    14     8     9 ar  
    15     8    23 1   
    16     9    10 1   
    17    10    11 1   
    18    11    12 1   
    19    12    13 ar  
    20    12    18 ar  
    21    13    14 ar  
    22    13    24 1   
    23    14    15 ar  
    24    14    25 1   
    25    15    16 1   
    26    15    17 ar  
    27    17    18 ar  
    28    17    26 1   
    29    18    27 1   
@<TRIPOS>SUBSTRUCTURE
     1 A73         1 TEMP              0 ****  ****    0 ROOT
