@<TRIPOS>MOLECULE
A74
   46    49     1     0     0
SMALL
abcg2


@<TRIPOS>ATOM
      1 C            4.1180    -1.1610    -2.1740 ca         1 A74      -0.118000
      2 C1           4.8750    -0.0170    -1.9910 ca         1 A74      -0.041000
      3 C2           4.8840     0.6080    -0.7540 ca         1 A74       0.094000
      4 C3           4.1500     0.1010     0.3020 ca         1 A74       0.018000
      5 C4           3.4030    -1.0530     0.1140 ca         1 A74      -0.271500
      6 C5           3.3810    -1.6870    -1.1260 ca         1 A74       0.203000
      7 S            2.5270    -1.6970     1.5160 sy         1 A74       1.213600
      8 O1           2.8010    -3.1070     1.6660 o          1 A74      -0.511500
      9 O2           2.7320    -0.7910     2.6210 o          1 A74      -0.511500
     10 N            0.9290    -1.6280     1.0460 nu         1 A74      -0.840300
     11 C6           0.2810    -0.4570     0.8020 cc         1 A74       0.778500
     12 N1           0.7920     0.7200     0.7660 nd         1 A74      -0.632100
     13 C7          -0.2900     1.5340     0.4730 ca         1 A74       0.132400
     14 C8          -0.3630     2.9130     0.3310 ca         1 A74      -0.156000
     15 C9          -1.6210     3.4450     0.0590 ca         1 A74       0.144100
     16 C10         -2.7500     2.6200    -0.0660 ca         1 A74      -0.134000
     17 C11         -2.6840     1.2360     0.0700 cp         1 A74       0.049000
     18 C12         -1.4200     0.7420     0.3410 ca         1 A74      -0.016900
     19 O3          -1.0330    -0.5540     0.5650 os         1 A74      -0.283700
     20 CL2          5.8170     2.0400    -0.5250 cl         1 A74      -0.178000
     21 CL1          2.4380    -3.0970    -1.4130 cl         1 A74      -0.164000
     22 O4          -1.8540     4.7610    -0.1090 os         1 A74      -0.340100
     23 C13         -0.7650     5.6560    -0.0140 c3         1 A74       0.146900
     24 C14         -6.2120    -0.0320     0.3560 ca         1 A74      -0.188000
     25 C15         -6.0550    -1.2400    -0.3360 ca         1 A74       0.593300
     26 N2          -4.9090    -1.6210    -0.8590 nb         1 A74      -0.760000
     27 C16         -3.8510    -0.8270    -0.7200 ca         1 A74       0.406900
     28 C17         -3.8780     0.3870    -0.0510 cp         1 A74      -0.136000
     29 C18         -5.1100     0.7760     0.4930 ca         1 A74      -0.029000
     30 C19         -6.9910    -3.2520    -1.1490 c3         1 A74       0.159900
     31 H            4.1030    -1.6460    -3.1410 ha         1 A74       0.138000
     32 H1           5.4500     0.3810    -2.8150 ha         1 A74       0.137000
     33 H3           4.1590     0.5980     1.2610 ha         1 A74       0.167000
     34 HN           0.4410    -2.5100     0.9390 hn         1 A74       0.543000
     35 H8           0.5250     3.5220     0.4320 ha         1 A74       0.142000
     36 H10         -3.7000     3.0850    -0.2980 ha         1 A74       0.136000
     37 H131        -1.1680     6.6510    -0.1840 h1         1 A74       0.044367
     38 H132        -0.2990     5.6300     0.9750 h1         1 A74       0.044367
     39 H133        -0.0010     5.4520    -0.7690 h1         1 A74       0.044367
     40 H14         -7.1700     0.2450     0.7750 ha         1 A74       0.140000
     41 H16         -2.9400    -1.1800    -1.1890 h4         1 A74       0.025100
     42 H18         -5.1950     1.7090     1.0360 ha         1 A74       0.126000
     43 H191        -6.6850    -3.1030    -2.1850 h1         1 A74       0.048033
     44 H192        -6.2700    -3.9100    -0.6630 h1         1 A74       0.048033
     45 H193        -7.9730    -3.7150    -1.1270 h1         1 A74       0.048033
     46 O5          -7.1290    -2.0180    -0.4570 os         1 A74      -0.458300
@<TRIPOS>BOND
     1     1     2 ar  
     2     1     6 ar  
     3     1    31 1   
     4     2     3 ar  
     5     2    32 1   
     6     3     4 ar  
     7     3    20 1   
     8     4     5 ar  
     9     4    33 1   
    10     5     6 ar  
    11     5     7 1   
    12     6    21 1   
    13     7     8 2   
    14     7     9 2   
    15     7    10 1   
    16    10    11 1   
    17    10    34 1   
    18    11    12 2   
    19    11    19 1   
    20    12    13 1   
    21    13    14 ar  
    22    13    18 ar  
    23    14    15 ar  
    24    14    35 1   
    25    15    16 ar  
    26    15    22 1   
    27    16    17 ar  
    28    16    36 1   
    29    17    18 ar  
    30    17    28 1   
    31    18    19 1   
    32    22    23 1   
    33    23    37 1   
    34    23    38 1   
    35    23    39 1   
    36    24    25 ar  
    37    24    29 ar  
    38    24    40 1   
    39    25    26 ar  
    40    25    46 1   
    41    26    27 ar  
    42    27    28 ar  
    43    27    41 1   
    44    28    29 ar  
    45    29    42 1   
    46    30    43 1   
    47    30    44 1   
    48    30    45 1   
    49    30    46 1   
@<TRIPOS>SUBSTRUCTURE
     1 A74         1 TEMP              0 ****  ****    0 ROOT
