@<TRIPOS>MOLECULE
A74
   46    49     1     0     0
SMALL
No Charge or Current Charge


@<TRIPOS>ATOM
      1 C            1.9930    -0.9970    -2.2120 ca         1 A74      -0.118000
      2 C1           2.9300     0.0260    -2.4400 ca         1 A74      -0.041000
      3 C2           3.7330     0.4820    -1.3850 ca         1 A74       0.094000
      4 C3           3.6070    -0.0850    -0.1060 ca         1 A74       0.018000
      5 C4           2.6710    -1.1200     0.1300 ca         1 A74      -0.271500
      6 C5           1.8580    -1.5710    -0.9360 ca         1 A74       0.203000
      7 S            2.5230    -1.7910     1.7940 sy         1 A74       1.213600
      8 O1           2.3940    -3.2470     1.7410 o          1 A74      -0.511500
      9 O2           3.4720    -1.1340     2.6960 o          1 A74      -0.511500
     10 N            1.0370    -1.3290     2.3560 nu         1 A74      -0.840300
     11 C6           0.4250    -0.2590     1.8480 cc         1 A74       0.778500
     12 N1           0.9560     0.9630     1.8380 nd         1 A74      -0.632100
     13 C7          -0.0300     1.6680     1.1880 ca         1 A74       0.132400
     14 C8          -0.0470     3.0280     0.8700 ca         1 A74      -0.156000
     15 C9          -1.1840     3.5370     0.1970 ca         1 A74       0.144100
     16 C10         -2.2560     2.6750    -0.1330 ca         1 A74      -0.134000
     17 C11         -2.2300     1.2910     0.1880 cp         1 A74       0.049000
     18 C12         -1.0690     0.8490     0.8600 ca         1 A74      -0.016900
     19 O3          -0.8290    -0.4150     1.2900 os         1 A74      -0.283700
     20 Cl2          4.8970     1.7720    -1.6640 cl         1 A74      -0.178000
     21 Cl1          0.6230    -2.8150    -0.7350 cl         1 A74      -0.164000
     22 O4          -1.2960     4.8650    -0.1620 os         1 A74      -0.340100
     23 C13         -0.2630     5.8250     0.1200 c3         1 A74       0.146900
     24 C14         -5.7250    -0.0810    -0.4540 ca         1 A74      -0.188000
     25 C15         -5.3970    -1.3810    -0.8620 ca         1 A74       0.593300
     26 N2          -4.1230    -1.8170    -0.9380 nb         1 A74      -0.760000
     27 C16         -3.1380    -0.9540    -0.5970 ca         1 A74       0.406900
     28 C17         -3.3610     0.3790    -0.1680 cp         1 A74      -0.136000
     29 C18         -4.7040     0.8150    -0.1040 ca         1 A74      -0.029000
     30 C19         -6.1810    -3.5780    -1.6260 c3         1 A74       0.159900
     31 H            1.3640    -1.3430    -3.0280 ha         1 A74       0.138000
     32 H1           3.0270     0.4670    -3.4280 ha         1 A74       0.137000
     33 H3           4.2370     0.2940     0.6970 ha         1 A74       0.167000
     34 HN           0.4800    -2.1560     2.2260 hn         1 A74       0.543000
     35 H8           0.7970     3.6520     1.1440 ha         1 A74       0.142000
     36 H10         -3.1120     3.0880    -0.6600 ha         1 A74       0.136000
     37 H131        -0.5530     6.8160    -0.2500 h1         1 A74       0.044367
     38 H132        -0.0880     5.9040     1.2010 h1         1 A74       0.044367
     39 H133         0.6780     5.5420    -0.3700 h1         1 A74       0.044367
     40 H14         -6.7660     0.2210    -0.4110 ha         1 A74       0.140000
     41 H16         -2.1240    -1.3410    -0.6920 h4         1 A74       0.025100
     42 H18         -4.9520     1.8230     0.2230 ha         1 A74       0.126000
     43 H191        -5.5670    -3.5940    -2.5370 h1         1 A74       0.048033
     44 H192        -5.6610    -4.1480    -0.8450 h1         1 A74       0.048033
     45 H193        -7.1270    -4.0900    -1.8460 h1         1 A74       0.048033
     46 O5          -6.4300    -2.2250    -1.1970 os         1 A74      -0.458300
@<TRIPOS>BOND
     1     1     2 ar  
     2     1     6 ar  
     3     1    31 1   
     4     2     3 ar  
     5     2    32 1   
     6     3     4 ar  
     7     3    20 1   
     8     4     5 ar  
     9     4    33 1   
    10     5     6 ar  
    11     5     7 1   
    12     6    21 1   
    13     7     8 2   
    14     7     9 2   
    15     7    10 1   
    16    10    11 1   
    17    10    34 1   
    18    11    12 2   
    19    11    19 1   
    20    12    13 1   
    21    13    14 ar  
    22    13    18 ar  
    23    14    15 ar  
    24    14    35 1   
    25    15    16 ar  
    26    15    22 1   
    27    16    17 ar  
    28    16    36 1   
    29    17    18 ar  
    30    17    28 1   
    31    18    19 1   
    32    22    23 1   
    33    23    37 1   
    34    23    38 1   
    35    23    39 1   
    36    24    25 ar  
    37    24    29 ar  
    38    24    40 1   
    39    25    26 ar  
    40    25    46 1   
    41    26    27 ar  
    42    27    28 ar  
    43    27    41 1   
    44    28    29 ar  
    45    29    42 1   
    46    30    43 1   
    47    30    44 1   
    48    30    45 1   
    49    30    46 1   
@<TRIPOS>SUBSTRUCTURE
     1 A74         1 TEMP              0 ****  ****    0 ROOT
