@<TRIPOS>MOLECULE
A75
   39    41     1     0     0
SMALL
bcc


@<TRIPOS>ATOM
      1 C1           4.8880    -1.2960    -0.0920 c6         1 A75      -0.072400
      2 C2           3.9170    -1.6790    -1.1940 c6         1 A75      -0.020100
      3 C3           2.6260    -0.8960    -1.1510 ca         1 A75      -0.106300
      4 C4           2.1820    -0.2390     0.0050 ca         1 A75      -0.030300
      5 C5           3.0430    -0.2620     1.2510 c6         1 A75      -0.041100
      6 C6           4.1490    -1.3070     1.2340 c6         1 A75      -0.071400
      7 C7           1.8640    -0.8360    -2.3140 ca         1 A75      -0.143000
      8 C8           0.6890    -0.1170    -2.3660 ca         1 A75      -0.132000
      9 C9           0.2510     0.5490    -1.2290 ca         1 A75       0.099600
     10 C10          0.9730     0.4860    -0.0270 ca         1 A75      -0.152600
     11 C11          0.4220     1.2370     1.1890 c          1 A75       0.923200
     12 O12          0.5450     0.7380     2.3100 o          1 A75      -0.804300
     13 O13         -0.1470     2.3370     0.9390 o          1 A75      -0.804300
     14 N14         -0.9270     1.3410    -1.3130 nu         1 A75      -0.672500
     15 S15         -2.3830     0.5590    -1.3400 sy         1 A75       1.267200
     16 C16         -2.4600    -0.3580     0.1720 ca         1 A75      -0.292500
     17 O17         -3.3940     1.6060    -1.3060 o          1 A75      -0.640300
     18 O18         -2.3800    -0.3920    -2.4400 o          1 A75      -0.640300
     19 C19         -1.9100    -1.6320     0.2190 ca         1 A75      -0.017000
     20 C20         -1.9060    -2.3180     1.4240 ca         1 A75      -0.146500
     21 C21         -2.4430    -1.7320     2.5610 ca         1 A75      -0.075000
     22 C22         -2.9880    -0.4560     2.5010 ca         1 A75      -0.146500
     23 C23         -2.9950     0.2430     1.3040 ca         1 A75      -0.017000
     24 H11          5.2970    -0.2990    -0.2790 hc         1 A75       0.030200
     25 H12A         5.7320    -1.9890    -0.0810 hc         1 A75       0.030200
     26 H21A         4.3770    -1.5560    -2.1780 hc         1 A75       0.031200
     27 H22A         3.6850    -2.7470    -1.1060 hc         1 A75       0.031200
     28 H51          3.4930     0.7310     1.3700 hc         1 A75       0.072700
     29 H52          2.4120    -0.4000     2.1230 hc         1 A75       0.072700
     30 H61          4.8300    -1.1220     2.0670 hc         1 A75       0.029200
     31 H62          3.7240    -2.3030     1.3990 hc         1 A75       0.029200
     32 H7           2.2170    -1.3430    -3.2050 ha         1 A75       0.110000
     33 H8           0.1290    -0.0410    -3.2870 ha         1 A75       0.143000
     34 H14         -0.8860     2.0240    -0.5230 hn         1 A75       0.502800
     35 H19         -1.4940    -2.0900    -0.6670 ha         1 A75       0.149000
     36 H20         -1.4830    -3.3130     1.4720 ha         1 A75       0.121500
     37 H21         -2.4390    -2.2720     3.4990 ha         1 A75       0.115000
     38 H22         -3.4090    -0.0020     3.3880 ha         1 A75       0.121500
     39 H23         -3.4210     1.2360     1.2590 ha         1 A75       0.149000
@<TRIPOS>BOND
     1     1     2 1   
     2     1     6 1   
     3     1    24 1   
     4     1    25 1   
     5     2     3 1   
     6     2    26 1   
     7     2    27 1   
     8     3     4 ar  
     9     3     7 ar  
    10     4     5 1   
    11     4    10 ar  
    12     5     6 1   
    13     5    28 1   
    14     5    29 1   
    15     6    30 1   
    16     6    31 1   
    17     7     8 ar  
    18     7    32 1   
    19     8     9 ar  
    20     8    33 1   
    21     9    10 ar  
    22     9    14 1   
    23    10    11 1   
    24    11    12 1   
    25    11    13 1   
    26    14    15 1   
    27    14    34 1   
    28    15    16 1   
    29    15    17 2   
    30    15    18 2   
    31    16    19 ar  
    32    16    23 ar  
    33    19    20 ar  
    34    19    35 1   
    35    20    21 ar  
    36    20    36 1   
    37    21    22 ar  
    38    21    37 1   
    39    22    23 ar  
    40    22    38 1   
    41    23    39 1   
@<TRIPOS>SUBSTRUCTURE
     1 A75         1 TEMP              0 ****  ****    0 ROOT
