@<TRIPOS>MOLECULE
A75
   39    41     1     0     0
SMALL
No Charge or Current Charge


@<TRIPOS>ATOM
      1 C1           4.9670    -1.3050    -0.0770 c6         1 A75      -0.072400
      2 C2           3.8420    -1.8920    -0.9490 c6         1 A75      -0.020100
      3 C3           2.5720    -1.0310    -0.9600 ca         1 A75      -0.106300
      4 C4           2.2980    -0.0820     0.0610 ca         1 A75      -0.030300
      5 C5           3.3140     0.1360     1.2060 c6         1 A75      -0.041100
      6 C6           4.4150    -0.9450     1.3110 c6         1 A75      -0.071400
      7 C7           1.6680    -1.2050    -2.0200 ca         1 A75      -0.125000
      8 C8           0.5120    -0.4210    -2.1000 ca         1 A75      -0.114000
      9 C9           0.2360     0.5420    -1.1170 ca         1 A75       0.238000
     10 C10          1.1160     0.7110    -0.0230 ca         1 A75      -0.152600
     11 C11          0.7670     1.7310     1.0360 c          1 A75       0.712600
     12 O12          0.6240     1.3530     2.1880 o          1 A75      -0.699000
     13 O13          0.4830     2.8630     0.6670 o          1 A75      -0.699000
     14 N14         -0.8940     1.3420    -1.2440 nu         1 A75      -0.866100
     15 S15         -2.4830     0.8350    -1.2280 sy         1 A75       1.125600
     16 C16         -2.5700    -0.3580     0.1100 ca         1 A75      -0.292500
     17 O17         -3.1910     2.0610    -0.8540 o          1 A75      -0.569500
     18 O18         -2.6730     0.1800    -2.5250 o          1 A75      -0.569500
     19 C19         -2.3570    -1.7270    -0.1540 ca         1 A75       0.001000
     20 C20         -2.4050    -2.6600     0.8970 ca         1 A75      -0.128500
     21 C21         -2.6610    -2.2320     2.2110 ca         1 A75      -0.057000
     22 C22         -2.8660    -0.8670     2.4750 ca         1 A75      -0.128500
     23 C23         -2.8190     0.0720     1.4290 ca         1 A75       0.001000
     24 H11          5.3870    -0.4100    -0.5560 hc         1 A75       0.030200
     25 H12A         5.7860    -2.0300     0.0170 hc         1 A75       0.030200
     26 H21A         4.2150    -2.0250    -1.9740 hc         1 A75       0.031200
     27 H22A         3.5860    -2.8960    -0.5850 hc         1 A75       0.031200
     28 H51          3.7880     1.1170     1.0700 hc         1 A75       0.072700
     29 H52          2.8060     0.1750     2.1770 hc         1 A75       0.072700
     30 H61          5.2250    -0.5900     1.9620 hc         1 A75       0.029200
     31 H62          4.0040    -1.8460     1.7870 hc         1 A75       0.029200
     32 H7           1.8720    -1.9370    -2.7980 ha         1 A75       0.092000
     33 H8          -0.1600    -0.5480    -2.9430 ha         1 A75       0.125000
     34 H14         -0.9010     2.1300    -0.6010 hn         1 A75       0.558000
     35 H19         -2.1510    -2.0720    -1.1660 ha         1 A75       0.131000
     36 H20         -2.2410    -3.7150     0.6920 ha         1 A75       0.103500
     37 H21         -2.6960    -2.9550     3.0220 ha         1 A75       0.097000
     38 H22         -3.0590    -0.5350     3.4920 ha         1 A75       0.103500
     39 H23         -2.9730     1.1260     1.6510 ha         1 A75       0.131000
@<TRIPOS>BOND
     1     1     2 1   
     2     1     6 1   
     3     1    24 1   
     4     1    25 1   
     5     2     3 1   
     6     2    26 1   
     7     2    27 1   
     8     3     4 ar  
     9     3     7 ar  
    10     4     5 1   
    11     4    10 ar  
    12     5     6 1   
    13     5    28 1   
    14     5    29 1   
    15     6    30 1   
    16     6    31 1   
    17     7     8 ar  
    18     7    32 1   
    19     8     9 ar  
    20     8    33 1   
    21     9    10 ar  
    22     9    14 1   
    23    10    11 1   
    24    11    12 1   
    25    11    13 1   
    26    14    15 1   
    27    14    34 1   
    28    15    16 1   
    29    15    17 2   
    30    15    18 2   
    31    16    19 ar  
    32    16    23 ar  
    33    19    20 ar  
    34    19    35 1   
    35    20    21 ar  
    36    20    36 1   
    37    21    22 ar  
    38    21    37 1   
    39    22    23 ar  
    40    22    38 1   
    41    23    39 1   
@<TRIPOS>SUBSTRUCTURE
     1 A75         1 TEMP              0 ****  ****    0 ROOT
