@<TRIPOS>MOLECULE
A76
  116   119     1     0     0
SMALL
No Charge or Current Charge


@<TRIPOS>ATOM
      1 C1           3.6150     2.6970    10.2120 c          1 A76       0.662600
      2 O2           3.5480     3.8630    10.5660 o          1 A76      -0.647100
      3 N3           3.8910     2.3230     8.8820 n          1 A76      -0.430800
      4 C4           3.9730     0.9020     8.4680 c3         1 A76       0.085300
      5 C5           4.1540     3.3610     7.8460 c3         1 A76       0.068200
      6 C6           5.6110     3.8200     7.7570 ca         1 A76       0.313800
      7 C7           6.6150     2.9350     7.3120 ca         1 A76      -0.159000
      8 N8           5.8800     5.1000     8.1120 nb         1 A76      -0.646500
      9 C9           7.9450     3.3780     7.2450 ca         1 A76      -0.075500
     10 C10          7.1630     5.5250     8.0480 ca         1 A76       0.336900
     11 C11          8.2200     4.7010     7.6250 ca         1 A76      -0.158000
     12 N21          3.4250     1.6580    11.0890 ns         1 A76      -0.518900
     13 C22          3.1960     1.7970    12.5440 c3         1 A76       0.050200
     14 C23          4.1390     0.8030    13.2760 c          1 A76       0.573100
     15 O24          4.3220    -0.3440    12.8860 o          1 A76      -0.596100
     16 C25          1.6940     1.5710    12.9050 c3         1 A76      -0.067700
     17 C26          0.7590     2.5860    12.2010 c3         1 A76      -0.088100
     18 C27          1.4420     1.5740    14.4330 c3         1 A76      -0.088100
     19 N37          4.7750     1.3110    14.3910 ns         1 A76      -0.501900
     20 C38          5.8830     0.6490    15.0970 c3         1 A76       0.076700
     21 C39          7.2440     1.2190    14.6190 c3         1 A76      -0.036600
     22 C40          7.4060     1.1550    13.1020 ca         1 A76      -0.087300
     23 C41          7.7690    -0.0550    12.4790 ca         1 A76      -0.096250
     24 C42          7.8780    -0.1260    11.0790 ca         1 A76      -0.112250
     25 C43          7.6240     1.0120    10.2940 ca         1 A76      -0.116000
     26 C44          7.2610     2.2210    10.9100 ca         1 A76      -0.112250
     27 C45          7.1550     2.2930    12.3090 ca         1 A76      -0.096250
     28 C46          5.6970     0.7080    16.6440 c3         1 A76       0.128800
     29 O47          5.6840     2.0780    17.0880 oh         1 A76      -0.657000
     30 O48          4.3050     0.1880    18.5880 oh         1 A76      -0.657000
     31 C49          4.3850     0.0290    17.1540 c3         1 A76       0.128800
     32 N50          5.3930    -2.2930    17.1820 ns         1 A76      -0.501900
     33 C51          4.2450    -1.4730    16.7530 c3         1 A76       0.076700
     34 C52          2.9170    -2.1250    17.2150 c3         1 A76      -0.036600
     35 C53          2.7920    -3.5690    16.7340 ca         1 A76      -0.087300
     36 C54          2.4120    -3.8410    15.4050 ca         1 A76      -0.096250
     37 C55          2.3400    -5.1670    14.9460 ca         1 A76      -0.112250
     38 C56          2.6500    -6.2300    15.8110 ca         1 A76      -0.116000
     39 C57          3.0300    -5.9660    17.1370 ca         1 A76      -0.112250
     40 C58          3.0990    -4.6400    17.5980 ca         1 A76      -0.096250
     41 N81          6.8460    -5.4830    16.4980 ns         1 A76      -0.518900
     42 C82          7.0520    -4.1330    17.0670 c3         1 A76       0.050200
     43 C83          6.0840    -3.1540    16.3490 c          1 A76       0.573100
     44 O84          5.9300    -3.1510    15.1340 o          1 A76      -0.596100
     45 C85          8.5430    -3.6860    16.9500 c3         1 A76      -0.067700
     46 C86          9.5120    -4.6540    17.6740 c3         1 A76      -0.088100
     47 C87          8.7660    -2.2340    17.4400 c3         1 A76      -0.088100
     48 O98          6.8030    -6.6520    18.4420 o          1 A76      -0.647100
     49 N99          6.4530    -7.8030    16.4730 n          1 A76      -0.430800
     50 C2           6.3280    -7.7700    14.9960 c3         1 A76       0.085300
     51 C3           6.2610    -9.1130    17.1540 c3         1 A76       0.068200
     52 C8           4.8270    -9.3950    17.6080 ca         1 A76       0.313800
     53 C12          3.8050    -9.6070    16.6610 ca         1 A76      -0.159000
     54 N10          4.5970    -9.4410    18.9440 nb         1 A76      -0.646500
     55 C13          2.4950    -9.8580    17.1020 ca         1 A76      -0.075500
     56 C14          3.3350    -9.6820    19.3670 ca         1 A76       0.336900
     57 C15          2.2610    -9.8920    18.4850 ca         1 A76      -0.158000
     58 H12          3.0250     0.3940     8.6870 h1         1 A76       0.041367
     59 H13          4.7890     0.4050     9.0080 h1         1 A76       0.041367
     60 H14          4.1680     0.8230     7.3910 h1         1 A76       0.041367
     61 H15          3.5130     4.2310     8.0390 h1         1 A76       0.074700
     62 H16          3.8560     2.9730     6.8640 h1         1 A76       0.074700
     63 H17          6.3620     1.9190     7.0260 ha         1 A76       0.118500
     64 H18          8.7400     2.7150     6.9100 ha         1 A76       0.119000
     65 H19          7.3490     6.5560     8.3440 h4         1 A76       0.023100
     66 H20          9.2340     5.0900     7.5920 ha         1 A76       0.125000
     67 H28          3.5350     0.7260    10.7150 hn         1 A76       0.325500
     68 H29          3.4870     2.8080    12.8570 h1         1 A76       0.088200
     69 H30          1.4160     0.5730    12.5410 hc         1 A76       0.064200
     70 H31         -0.2870     2.4060    12.4770 hc         1 A76       0.037950
     71 H32          0.8300     2.5010    11.1100 hc         1 A76       0.037950
     72 H33          1.0160     3.6140    12.4850 hc         1 A76       0.037950
     73 H34          1.7810     2.5150    14.8840 hc         1 A76       0.037950
     74 H35          1.9640     0.7440    14.9220 hc         1 A76       0.037950
     75 H36          0.3730     1.4580    14.6500 hc         1 A76       0.037950
     76 H59          4.5570     2.2640    14.6540 hn         1 A76       0.317000
     77 H60          5.8890    -0.4120    14.8110 h1         1 A76       0.109700
     78 H61          8.0550     0.6620    15.1040 hc         1 A76       0.058200
     79 H62          7.3450     2.2570    14.9610 hc         1 A76       0.058200
     80 H63          7.9550    -0.9430    13.0780 ha         1 A76       0.118500
     81 H64          8.1550    -1.0630    10.6030 ha         1 A76       0.111250
     82 H65          7.7070     0.9540     9.2110 ha         1 A76       0.105500
     83 H66          7.0610     3.1020    10.3050 ha         1 A76       0.111250
     84 H67          6.8630     3.2320    12.7760 ha         1 A76       0.118500
     85 H68          6.5480     0.1830    17.1000 h1         1 A76       0.076700
     86 H69          5.1940     2.0670    17.9420 ho         1 A76       0.447000
     87 H70          5.0170    -0.3510    18.9920 ho         1 A76       0.447000
     88 H71          3.5420     0.5600    16.6920 h1         1 A76       0.076700
     89 H72          5.5610    -2.4030    18.1740 hn         1 A76       0.317000
     90 H73          4.2050    -1.4920    15.6550 h1         1 A76       0.109700
     91 H74          2.8480    -2.0850    18.3090 hc         1 A76       0.058200
     92 H75          2.0760    -1.5320    16.8360 hc         1 A76       0.058200
     93 H76          2.1830    -3.0240    14.7250 ha         1 A76       0.118500
     94 H77          2.0490    -5.3710    13.9180 ha         1 A76       0.111250
     95 H78          2.5950    -7.2550    15.4520 ha         1 A76       0.105500
     96 H79          3.2740    -6.7870    17.8070 ha         1 A76       0.111250
     97 H80          3.4040    -4.4460    18.6240 ha         1 A76       0.118500
     98 H88          6.7210    -5.5610    15.4980 hn         1 A76       0.325500
     99 H89          6.7710    -4.1490    18.1280 h1         1 A76       0.088200
    100 H90          8.8080    -3.7050    15.8850 hc         1 A76       0.064200
    101 H91          9.4630    -5.6610    17.2440 hc         1 A76       0.037950
    102 H92          9.2690    -4.7220    18.7420 hc         1 A76       0.037950
    103 H93         10.5480    -4.3070    17.5810 hc         1 A76       0.037950
    104 H94          9.8270    -1.9620    17.3780 hc         1 A76       0.037950
    105 H95          8.4450    -2.1180    18.4830 hc         1 A76       0.037950
    106 H96          8.2100    -1.5180    16.8240 hc         1 A76       0.037950
    107 H1           7.2530    -7.3790    14.5520 h1         1 A76       0.041367
    108 H10          5.4850    -7.1280    14.7090 h1         1 A76       0.041367
    109 H11          6.1510    -8.7780    14.6000 h1         1 A76       0.041367
    110 H2           6.5710    -9.9190    16.4770 h1         1 A76       0.074700
    111 H3           6.9310    -9.1690    18.0210 h1         1 A76       0.074700
    112 H4           4.0260    -9.5730    15.5980 ha         1 A76       0.118500
    113 H5           1.6870   -10.0200    16.3920 ha         1 A76       0.119000
    114 H6           3.1800    -9.7080    20.4450 h4         1 A76       0.023100
    115 H7           1.2650   -10.0820    18.8760 ha         1 A76       0.125000
    116 C97          6.7090    -6.6390    17.2250 c          1 A76       0.662600
@<TRIPOS>BOND
     1     1     2 2   
     2     1     3 1   
     3     1    12 1   
     4     3     4 1   
     5     3     5 1   
     6     4    58 1   
     7     4    59 1   
     8     4    60 1   
     9     5     6 1   
    10     5    61 1   
    11     5    62 1   
    12     6     7 ar  
    13     6     8 ar  
    14     7     9 ar  
    15     7    63 1   
    16     8    10 ar  
    17     9    11 ar  
    18     9    64 1   
    19    10    11 ar  
    20    10    65 1   
    21    11    66 1   
    22    12    13 1   
    23    12    67 1   
    24    13    14 1   
    25    13    16 1   
    26    13    68 1   
    27    14    15 2   
    28    14    19 1   
    29    16    17 1   
    30    16    18 1   
    31    16    69 1   
    32    17    70 1   
    33    17    71 1   
    34    17    72 1   
    35    18    73 1   
    36    18    74 1   
    37    18    75 1   
    38    19    20 1   
    39    19    76 1   
    40    20    21 1   
    41    20    28 1   
    42    20    77 1   
    43    21    22 1   
    44    21    78 1   
    45    21    79 1   
    46    22    23 ar  
    47    22    27 ar  
    48    23    24 ar  
    49    23    80 1   
    50    24    25 ar  
    51    24    81 1   
    52    25    26 ar  
    53    25    82 1   
    54    26    27 ar  
    55    26    83 1   
    56    27    84 1   
    57    28    29 1   
    58    28    31 1   
    59    28    85 1   
    60    29    86 1   
    61    30    31 1   
    62    30    87 1   
    63    31    33 1   
    64    31    88 1   
    65    32    33 1   
    66    32    43 1   
    67    32    89 1   
    68    33    34 1   
    69    33    90 1   
    70    34    35 1   
    71    34    91 1   
    72    34    92 1   
    73    35    36 ar  
    74    35    40 ar  
    75    36    37 ar  
    76    36    93 1   
    77    37    38 ar  
    78    37    94 1   
    79    38    39 ar  
    80    38    95 1   
    81    39    40 ar  
    82    39    96 1   
    83    40    97 1   
    84    41    42 1   
    85    41    98 1   
    86    41   116 1   
    87    42    43 1   
    88    42    45 1   
    89    42    99 1   
    90    43    44 2   
    91    45    46 1   
    92    45    47 1   
    93    45   100 1   
    94    46   101 1   
    95    46   102 1   
    96    46   103 1   
    97    47   104 1   
    98    47   105 1   
    99    47   106 1   
   100    48   116 2   
   101    49    50 1   
   102    49    51 1   
   103    49   116 1   
   104    50   107 1   
   105    50   108 1   
   106    50   109 1   
   107    51    52 1   
   108    51   110 1   
   109    51   111 1   
   110    52    53 ar  
   111    52    54 ar  
   112    53    55 ar  
   113    53   112 1   
   114    54    56 ar  
   115    55    57 ar  
   116    55   113 1   
   117    56    57 ar  
   118    56   114 1   
   119    57   115 1   
@<TRIPOS>SUBSTRUCTURE
     1 A76         1 TEMP              0 ****  ****    0 ROOT
