@<TRIPOS>MOLECULE
A76
  116   119     1     0     0
SMALL
abcg2


@<TRIPOS>ATOM
      1 C1           3.4510     2.7270    10.7890 c          1 A76       0.662600
      2 O2           3.2460     3.7520    11.4530 o          1 A76      -0.647100
      3 N3           3.8930     2.7620     9.4950 n          1 A76      -0.430800
      4 C4           4.1350     1.5500     8.7240 c3         1 A76       0.085300
      5 C5           4.1630     4.0500     8.8630 c3         1 A76       0.068200
      6 C6           5.6420     4.3620     8.7960 ca         1 A76       0.313800
      7 C7           6.3780     4.1050     7.6420 ca         1 A76      -0.159000
      8 N8           6.2080     4.8600     9.9040 nb         1 A76      -0.646500
      9 C9           7.7450     4.3530     7.6390 ca         1 A76      -0.075500
     10 C10          7.5210     5.0980     9.8920 ca         1 A76       0.336900
     11 C11          8.3330     4.8570     8.7900 ca         1 A76      -0.158000
     12 N21          3.2230     1.4810    11.3030 ns         1 A76      -0.518900
     13 C22          2.8730     1.2680    12.6950 c3         1 A76       0.050200
     14 C23          3.9800     0.4090    13.3100 c          1 A76       0.573100
     15 O24          4.1480    -0.7550    12.9470 o          1 A76      -0.596100
     16 C25          1.4940     0.6100    12.8730 c3         1 A76      -0.067700
     17 C26          0.4030     1.4520    12.2140 c3         1 A76      -0.088100
     18 C27          1.1970     0.3920    14.3570 c3         1 A76      -0.088100
     19 N37          4.7380     1.0240    14.2340 ns         1 A76      -0.501900
     20 C38          5.9070     0.4320    14.8700 c3         1 A76       0.076700
     21 C39          7.1940     1.1180    14.3810 c3         1 A76      -0.036600
     22 C40          7.4390     0.8550    12.9190 ca         1 A76      -0.087300
     23 C41          7.9630    -0.3740    12.5070 ca         1 A76      -0.096250
     24 C42          8.1430    -0.6580    11.1590 ca         1 A76      -0.112250
     25 C43          7.8030     0.2880    10.1950 ca         1 A76      -0.116000
     26 C44          7.2870     1.5160    10.5940 ca         1 A76      -0.112250
     27 C45          7.1040     1.7950    11.9450 ca         1 A76      -0.096250
     28 C46          5.7820     0.4720    16.4010 c3         1 A76       0.128800
     29 O47          5.8110     1.8120    16.8940 oh         1 A76      -0.657000
     30 O48          4.5070    -0.2130    18.3610 oh         1 A76      -0.657000
     31 C49          4.5540    -0.2730    16.9340 c3         1 A76       0.128800
     32 N50          5.6120    -2.4970    16.8050 ns         1 A76      -0.501900
     33 C51          4.4440    -1.7180    16.4250 c3         1 A76       0.076700
     34 C52          3.1520    -2.4010    16.9060 c3         1 A76      -0.036600
     35 C53          2.8990    -3.6850    16.1620 ca         1 A76      -0.087300
     36 C54          2.3420    -3.6510    14.8800 ca         1 A76      -0.096250
     37 C55          2.1520    -4.8190    14.1530 ca         1 A76      -0.112250
     38 C56          2.5150    -6.0480    14.7000 ca         1 A76      -0.116000
     39 C57          3.0650    -6.0940    15.9760 ca         1 A76      -0.112250
     40 C58          3.2580    -4.9210    16.6990 ca         1 A76      -0.096250
     41 N81          7.1070    -5.4120    16.4750 ns         1 A76      -0.518900
     42 C82          7.4940    -4.0190    16.5900 c3         1 A76       0.050200
     43 C83          6.3840    -3.1830    15.9440 c          1 A76       0.573100
     44 O84          6.2200    -3.1790    14.7250 o          1 A76      -0.596100
     45 C85          8.8590    -3.7240    15.9510 c3         1 A76      -0.067700
     46 C86          9.9490    -4.5980    16.5690 c3         1 A76      -0.088100
     47 C87          9.1990    -2.2400    16.0960 c3         1 A76      -0.088100
     48 O98          6.8230    -5.7220    18.7120 o          1 A76      -0.647100
     49 N99          6.3010    -7.4270    17.2780 n          1 A76      -0.430800
     50 C2           6.2320    -7.9440    15.9180 c3         1 A76       0.085300
     51 C3           5.9150    -8.3130    18.3720 c3         1 A76       0.068200
     52 C8           4.4140    -8.4500    18.5020 ca         1 A76       0.313800
     53 C12          3.7400    -9.5340    17.9440 ca         1 A76      -0.159000
     54 N10          3.7700    -7.4670    19.1450 nb         1 A76      -0.646500
     55 C13          2.3550    -9.5930    18.0380 ca         1 A76      -0.075500
     56 C14          2.4410    -7.5310    19.2320 ca         1 A76       0.336900
     57 C15          1.6870    -8.5680    18.6930 ca         1 A76      -0.158000
     58 H12          3.2190     0.9660     8.6020 h1         1 A76       0.041367
     59 H13          4.9020     0.9230     9.1840 h1         1 A76       0.041367
     60 H14          4.4870     1.8300     7.7350 h1         1 A76       0.041367
     61 H15          3.6590     4.8170     9.4430 h1         1 A76       0.074700
     62 H16          3.7430     4.0340     7.8560 h1         1 A76       0.074700
     63 H17          5.8840     3.7140     6.7610 ha         1 A76       0.118500
     64 H18          8.3380     4.1540     6.7560 ha         1 A76       0.119000
     65 H19          7.9450     5.4980    10.8070 h4         1 A76       0.023100
     66 H20          9.3940     5.0640     8.8390 ha         1 A76       0.125000
     67 H28          3.4540     0.6610    10.7690 hn         1 A76       0.325500
     68 H29          2.8580     2.2500    13.1660 h1         1 A76       0.088200
     69 H30          1.5350    -0.3650    12.3770 hc         1 A76       0.064200
     70 H31         -0.5650     0.9560    12.3050 hc         1 A76       0.037950
     71 H32          0.6060     1.6110    11.1540 hc         1 A76       0.037950
     72 H33          0.3270     2.4300    12.6960 hc         1 A76       0.037950
     73 H34          1.1940     1.3460    14.8920 hc         1 A76       0.037950
     74 H35          1.9350    -0.2560    14.8290 hc         1 A76       0.037950
     75 H36          0.2180    -0.0710    14.4860 hc         1 A76       0.037950
     76 H59          4.5610     2.0020    14.4060 hn         1 A76       0.317000
     77 H60          5.9400    -0.6080    14.5540 h1         1 A76       0.109700
     78 H61          8.0260     0.7310    14.9740 hc         1 A76       0.058200
     79 H62          7.1250     2.1890    14.5710 hc         1 A76       0.058200
     80 H63          8.2250    -1.1160    13.2520 ha         1 A76       0.118500
     81 H64          8.5500    -1.6160    10.8600 ha         1 A76       0.111250
     82 H65          7.9400     0.0710     9.1430 ha         1 A76       0.105500
     83 H66          7.0240     2.2560     9.8520 ha         1 A76       0.111250
     84 H67          6.6960     2.7530    12.2440 ha         1 A76       0.118500
     85 H68          6.6800    -0.0050    16.8020 h1         1 A76       0.076700
     86 H69          4.9170     2.1760    16.8750 ho         1 A76       0.447000
     87 H70          5.3950    -0.3600    18.7130 ho         1 A76       0.447000
     88 H71          3.6570     0.2510    16.5940 h1         1 A76       0.076700
     89 H72          5.7810    -2.6310    17.7910 hn         1 A76       0.317000
     90 H73          4.4250    -1.6960    15.3380 h1         1 A76       0.109700
     91 H74          3.2190    -2.5840    17.9790 hc         1 A76       0.058200
     92 H75          2.3250    -1.7090    16.7400 hc         1 A76       0.058200
     93 H76          2.0620    -2.6970    14.4480 ha         1 A76       0.118500
     94 H77          1.7190    -4.7720    13.1610 ha         1 A76       0.111250
     95 H78          2.3670    -6.9610    14.1380 ha         1 A76       0.105500
     96 H79          3.3420    -7.0440    16.4110 ha         1 A76       0.111250
     97 H80          3.6920    -4.9680    17.6900 ha         1 A76       0.118500
     98 H88          6.9910    -5.7740    15.5440 hn         1 A76       0.325500
     99 H89          7.5490    -3.8000    17.6550 h1         1 A76       0.088200
    100 H90          8.7780    -3.9610    14.8850 hc         1 A76       0.064200
    101 H91          9.7190    -5.6590    16.4650 hc         1 A76       0.037950
    102 H92         10.0630    -4.3770    17.6340 hc         1 A76       0.037950
    103 H93         10.9080    -4.4080    16.0820 hc         1 A76       0.037950
    104 H94         10.1620    -2.0210    15.6310 hc         1 A76       0.037950
    105 H95          9.2640    -1.9630    17.1520 hc         1 A76       0.037950
    106 H96          8.4500    -1.6030    15.6270 hc         1 A76       0.037950
    107 H1           7.2210    -7.9790    15.4530 h1         1 A76       0.041367
    108 H10          5.5630    -7.3490    15.2910 h1         1 A76       0.041367
    109 H11          5.8380    -8.9560    15.9500 h1         1 A76       0.041367
    110 H2           6.3620    -9.2930    18.1970 h1         1 A76       0.074700
    111 H3           6.3190    -7.9010    19.2920 h1         1 A76       0.074700
    112 H4           4.2950   -10.3150    17.4420 ha         1 A76       0.118500
    113 H5           1.8090   -10.4220    17.6060 ha         1 A76       0.119000
    114 H6           1.9530    -6.7150    19.7550 h4         1 A76       0.023100
    115 H7           0.6100    -8.5670    18.7900 ha         1 A76       0.125000
    116 C97          6.7410    -6.1620    17.5570 c          1 A76       0.662600
@<TRIPOS>BOND
     1     1     2 2   
     2     1     3 1   
     3     1    12 1   
     4     3     4 1   
     5     3     5 1   
     6     4    58 1   
     7     4    59 1   
     8     4    60 1   
     9     5     6 1   
    10     5    61 1   
    11     5    62 1   
    12     6     7 ar  
    13     6     8 ar  
    14     7     9 ar  
    15     7    63 1   
    16     8    10 ar  
    17     9    11 ar  
    18     9    64 1   
    19    10    11 ar  
    20    10    65 1   
    21    11    66 1   
    22    12    13 1   
    23    12    67 1   
    24    13    14 1   
    25    13    16 1   
    26    13    68 1   
    27    14    15 2   
    28    14    19 1   
    29    16    17 1   
    30    16    18 1   
    31    16    69 1   
    32    17    70 1   
    33    17    71 1   
    34    17    72 1   
    35    18    73 1   
    36    18    74 1   
    37    18    75 1   
    38    19    20 1   
    39    19    76 1   
    40    20    21 1   
    41    20    28 1   
    42    20    77 1   
    43    21    22 1   
    44    21    78 1   
    45    21    79 1   
    46    22    23 ar  
    47    22    27 ar  
    48    23    24 ar  
    49    23    80 1   
    50    24    25 ar  
    51    24    81 1   
    52    25    26 ar  
    53    25    82 1   
    54    26    27 ar  
    55    26    83 1   
    56    27    84 1   
    57    28    29 1   
    58    28    31 1   
    59    28    85 1   
    60    29    86 1   
    61    30    31 1   
    62    30    87 1   
    63    31    33 1   
    64    31    88 1   
    65    32    33 1   
    66    32    43 1   
    67    32    89 1   
    68    33    34 1   
    69    33    90 1   
    70    34    35 1   
    71    34    91 1   
    72    34    92 1   
    73    35    36 ar  
    74    35    40 ar  
    75    36    37 ar  
    76    36    93 1   
    77    37    38 ar  
    78    37    94 1   
    79    38    39 ar  
    80    38    95 1   
    81    39    40 ar  
    82    39    96 1   
    83    40    97 1   
    84    41    42 1   
    85    41    98 1   
    86    41   116 1   
    87    42    43 1   
    88    42    45 1   
    89    42    99 1   
    90    43    44 2   
    91    45    46 1   
    92    45    47 1   
    93    45   100 1   
    94    46   101 1   
    95    46   102 1   
    96    46   103 1   
    97    47   104 1   
    98    47   105 1   
    99    47   106 1   
   100    48   116 2   
   101    49    50 1   
   102    49    51 1   
   103    49   116 1   
   104    50   107 1   
   105    50   108 1   
   106    50   109 1   
   107    51    52 1   
   108    51   110 1   
   109    51   111 1   
   110    52    53 ar  
   111    52    54 ar  
   112    53    55 ar  
   113    53   112 1   
   114    54    56 ar  
   115    55    57 ar  
   116    55   113 1   
   117    56    57 ar  
   118    56   114 1   
   119    57   115 1   
@<TRIPOS>SUBSTRUCTURE
     1 A76         1 TEMP              0 ****  ****    0 ROOT
