@<TRIPOS>MOLECULE
A77
  116   119     1     0     0
SMALL
No Charge or Current Charge


@<TRIPOS>ATOM
      1 C1           3.5150     2.5880    10.2240 c          1 A77       0.662600
      2 O2           3.3580     3.7510    10.5590 o          1 A77      -0.645600
      3 N3           3.6340     2.1980     8.8760 n          1 A77      -0.430800
      4 C4           3.8330     0.7820     8.4840 c3         1 A77       0.085800
      5 C5           3.5960     3.2170     7.7900 c3         1 A77       0.067700
      6 C6           4.9490     3.8500     7.4590 ca         1 A77       0.310800
      7 C7           5.9630     3.0900     6.8420 ca         1 A77      -0.158000
      8 N8           5.1150     5.1580     7.7740 nb         1 A77      -0.647000
      9 C9           7.1990     3.6910     6.5550 ca         1 A77      -0.076000
     10 C10          6.3070     5.7360     7.4960 ca         1 A77       0.335900
     11 C11          7.3700     5.0420     6.8940 ca         1 A77      -0.157500
     12 N21          3.5860     1.5710    11.1440 ns         1 A77      -0.519900
     13 C22          3.5460     1.7410    12.6130 c3         1 A77       0.049700
     14 C23          4.6650     0.8580    13.2310 c          1 A77       0.572600
     15 O24          4.8920    -0.2830    12.8490 o          1 A77      -0.588100
     16 C25          2.1350     1.4010    13.1900 c3         1 A77      -0.068200
     17 C26          2.0810     1.5460    14.7300 c3         1 A77      -0.088850
     18 C27          1.0020     2.2290    12.5350 c3         1 A77      -0.088850
     19 N37          5.4050     1.4600    14.2320 ns         1 A77      -0.504900
     20 C38          6.6750     0.9300    14.7580 c3         1 A77       0.077700
     21 C39          7.8630     1.6510    14.0650 c3         1 A77      -0.042600
     22 C40          7.7710     1.6040    12.5410 ca         1 A77      -0.084300
     23 C41          7.2850     2.7120    11.8170 ca         1 A77      -0.097250
     24 C42          7.1650     2.6480    10.4180 ca         1 A77      -0.111500
     25 C43          7.5320     1.4770     9.7340 ca         1 A77      -0.115500
     26 C44          8.0190     0.3710    10.4490 ca         1 A77      -0.111500
     27 C45          8.1370     0.4330    11.8480 ca         1 A77      -0.097250
     28 C46          6.7300     1.0040    16.3170 c3         1 A77       0.130300
     29 O47          7.9450     0.4060    16.8050 oh         1 A77      -0.662500
     30 O48          5.7260     0.4540    18.4620 oh         1 A77      -0.662500
     31 C49          5.5050     0.3580    17.0430 c3         1 A77       0.130300
     32 N50          6.2250    -2.0820    17.0880 ns         1 A77      -0.504900
     33 C51          5.1920    -1.1230    16.6440 c3         1 A77       0.077700
     34 C52          3.8060    -1.5890    17.1600 c3         1 A77      -0.042600
     35 C53          3.4360    -2.9860    16.6720 ca         1 A77      -0.084300
     36 C54          3.4950    -4.0890    17.5470 ca         1 A77      -0.097250
     37 C55          3.1740    -5.3780    17.0860 ca         1 A77      -0.111500
     38 C56          2.7940    -5.5710    15.7480 ca         1 A77      -0.115500
     39 C57          2.7340    -4.4760    14.8710 ca         1 A77      -0.111500
     40 C58          3.0530    -3.1870    15.3320 ca         1 A77      -0.097250
     41 N81          6.8580    -5.5730    16.5470 ns         1 A77      -0.519900
     42 C82          7.3620    -4.2950    17.0970 c3         1 A77       0.049700
     43 C83          6.6840    -3.1320    16.3140 c          1 A77       0.572600
     44 O84          6.5400    -3.1510    15.0980 o          1 A77      -0.588100
     45 C85          8.9230    -4.2350    17.0400 c3         1 A77      -0.068200
     46 C86          9.4840    -2.8840    17.5400 c3         1 A77      -0.088850
     47 C87          9.5950    -5.4060    17.8010 c3         1 A77      -0.088850
     48 O98          6.5280    -6.6670    18.5070 o          1 A77      -0.645600
     49 N99          6.0140    -7.7690    16.5460 n          1 A77      -0.430800
     50 C2           5.9480    -7.7470    15.0650 c3         1 A77       0.085800
     51 C3           5.5730    -9.0130    17.2390 c3         1 A77       0.067700
     52 C8           4.0980    -9.0350    17.6430 ca         1 A77       0.310800
     53 C12          3.0880    -9.1010    16.6620 ca         1 A77      -0.158000
     54 N10          3.8190    -8.9980    18.9690 nb         1 A77      -0.647000
     55 C13          1.7410    -9.1110    17.0580 ca         1 A77      -0.076000
     56 C14          2.5200    -9.0090    19.3490 ca         1 A77       0.335900
     57 C15          1.4570    -9.0620    18.4320 ca         1 A77      -0.157500
     58 H12          3.8840     0.6870     7.3920 h1         1 A77       0.040700
     59 H13          4.7710     0.4070     8.9130 h1         1 A77       0.040700
     60 H14          2.9950     0.1740     8.8490 h1         1 A77       0.040700
     61 H15          2.8860     4.0080     8.0650 h1         1 A77       0.075700
     62 H16          3.2000     2.7550     6.8770 h1         1 A77       0.075700
     63 H17          5.7920     2.0460     6.5940 ha         1 A77       0.119000
     64 H18          8.0010     3.1250     6.0840 ha         1 A77       0.120000
     65 H19          6.4130     6.7860     7.7660 h4         1 A77       0.022600
     66 H20          8.3080     5.5510     6.6920 ha         1 A77       0.125500
     67 H28          3.7520     0.6430    10.7780 hn         1 A77       0.327500
     68 H29          3.7840     2.7850    12.8540 h1         1 A77       0.088700
     69 H30          1.9330     0.3460    12.9620 hc         1 A77       0.064200
     70 H31          1.0790     1.3080    15.1080 hc         1 A77       0.038283
     71 H32          2.7840     0.8600    15.2150 hc         1 A77       0.038283
     72 H33          2.3280     2.5700    15.0370 hc         1 A77       0.038283
     73 H34          1.1720     3.3030    12.6750 hc         1 A77       0.038283
     74 H35          0.9330     2.0280    11.4590 hc         1 A77       0.038283
     75 H36          0.0310     1.9760    12.9770 hc         1 A77       0.038283
     76 H59          5.1480     2.4100    14.4750 hn         1 A77       0.317000
     77 H60          6.7470    -0.1300    14.4770 h1         1 A77       0.101700
     78 H61          8.8050     1.1930    14.3880 hc         1 A77       0.058950
     79 H62          7.9000     2.6920    14.4090 hc         1 A77       0.058950
     80 H63          6.9900     3.6190    12.3390 ha         1 A77       0.116500
     81 H64          6.7840     3.5040     9.8660 ha         1 A77       0.111750
     82 H65          7.4410     1.4260     8.6520 ha         1 A77       0.106500
     83 H66          8.3010    -0.5370     9.9200 ha         1 A77       0.111750
     84 H67          8.5040    -0.4320    12.3950 ha         1 A77       0.116500
     85 H68          6.7270     2.0720    16.5810 h1         1 A77       0.079200
     86 H69          7.8700    -0.5590    16.6400 ho         1 A77       0.454500
     87 H70          6.7020     0.5280    18.5660 ho         1 A77       0.454500
     88 H71          4.6230     0.9580    16.7740 h1         1 A77       0.079200
     89 H72          6.3850    -2.1530    18.0860 hn         1 A77       0.317000
     90 H73          5.1310    -1.1590    15.5480 h1         1 A77       0.101700
     91 H74          3.0400    -0.8760    16.8320 hc         1 A77       0.058950
     92 H75          3.7970    -1.5540    18.2560 hc         1 A77       0.058950
     93 H76          3.7960    -3.9510    18.5830 ha         1 A77       0.116500
     94 H77          3.2240    -6.2240    17.7670 ha         1 A77       0.111750
     95 H78          2.5450    -6.5670    15.3900 ha         1 A77       0.106500
     96 H79          2.4410    -4.6260    13.8340 ha         1 A77       0.111750
     97 H80          3.0100    -2.3460    14.6440 ha         1 A77       0.116500
     98 H88          6.7410    -5.6440    15.5450 hn         1 A77       0.327500
     99 H89          7.0420    -4.2100    18.1430 h1         1 A77       0.088700
    100 H90          9.2160    -4.3310    15.9860 hc         1 A77       0.064200
    101 H91         10.5810    -2.8960    17.5460 hc         1 A77       0.038283
    102 H92          9.1750    -2.0640    16.8840 hc         1 A77       0.038283
    103 H93          9.1400    -2.6680    18.5590 hc         1 A77       0.038283
    104 H94          9.2960    -5.4080    18.8560 hc         1 A77       0.038283
    105 H95          9.3250    -6.3740    17.3620 hc         1 A77       0.038283
    106 H96         10.6880    -5.3220    17.7560 hc         1 A77       0.038283
    107 H1           6.9480    -7.5660    14.6500 h1         1 A77       0.040700
    108 H10          5.2660    -6.9520    14.7360 h1         1 A77       0.040700
    109 H11          5.5790    -8.7060    14.6800 h1         1 A77       0.040700
    110 H2           6.1940    -9.1650    18.1310 h1         1 A77       0.075700
    111 H3           5.7630    -9.8740    16.5850 h1         1 A77       0.075700
    112 H4           3.3480    -9.1390    15.6080 ha         1 A77       0.119000
    113 H5           0.9410    -9.1560    16.3220 ha         1 A77       0.120000
    114 H6           2.3270    -8.9740    20.4200 h4         1 A77       0.022600
    115 H7           0.4300    -9.0670    18.7880 ha         1 A77       0.125500
    116 C97          6.4710    -6.6620    17.2880 c          1 A77       0.662600
@<TRIPOS>BOND
     1     1     2 2   
     2     1     3 1   
     3     1    12 1   
     4     3     4 1   
     5     3     5 1   
     6     4    58 1   
     7     4    59 1   
     8     4    60 1   
     9     5     6 1   
    10     5    61 1   
    11     5    62 1   
    12     6     7 ar  
    13     6     8 ar  
    14     7     9 ar  
    15     7    63 1   
    16     8    10 ar  
    17     9    11 ar  
    18     9    64 1   
    19    10    11 ar  
    20    10    65 1   
    21    11    66 1   
    22    12    13 1   
    23    12    67 1   
    24    13    14 1   
    25    13    16 1   
    26    13    68 1   
    27    14    15 2   
    28    14    19 1   
    29    16    17 1   
    30    16    18 1   
    31    16    69 1   
    32    17    70 1   
    33    17    71 1   
    34    17    72 1   
    35    18    73 1   
    36    18    74 1   
    37    18    75 1   
    38    19    20 1   
    39    19    76 1   
    40    20    21 1   
    41    20    28 1   
    42    20    77 1   
    43    21    22 1   
    44    21    78 1   
    45    21    79 1   
    46    22    23 ar  
    47    22    27 ar  
    48    23    24 ar  
    49    23    80 1   
    50    24    25 ar  
    51    24    81 1   
    52    25    26 ar  
    53    25    82 1   
    54    26    27 ar  
    55    26    83 1   
    56    27    84 1   
    57    28    29 1   
    58    28    31 1   
    59    28    85 1   
    60    29    86 1   
    61    30    31 1   
    62    30    87 1   
    63    31    33 1   
    64    31    88 1   
    65    32    33 1   
    66    32    43 1   
    67    32    89 1   
    68    33    34 1   
    69    33    90 1   
    70    34    35 1   
    71    34    91 1   
    72    34    92 1   
    73    35    36 ar  
    74    35    40 ar  
    75    36    37 ar  
    76    36    93 1   
    77    37    38 ar  
    78    37    94 1   
    79    38    39 ar  
    80    38    95 1   
    81    39    40 ar  
    82    39    96 1   
    83    40    97 1   
    84    41    42 1   
    85    41    98 1   
    86    41   116 1   
    87    42    43 1   
    88    42    45 1   
    89    42    99 1   
    90    43    44 2   
    91    45    46 1   
    92    45    47 1   
    93    45   100 1   
    94    46   101 1   
    95    46   102 1   
    96    46   103 1   
    97    47   104 1   
    98    47   105 1   
    99    47   106 1   
   100    48   116 2   
   101    49    50 1   
   102    49    51 1   
   103    49   116 1   
   104    50   107 1   
   105    50   108 1   
   106    50   109 1   
   107    51    52 1   
   108    51   110 1   
   109    51   111 1   
   110    52    53 ar  
   111    52    54 ar  
   112    53    55 ar  
   113    53   112 1   
   114    54    56 ar  
   115    55    57 ar  
   116    55   113 1   
   117    56    57 ar  
   118    56   114 1   
   119    57   115 1   
@<TRIPOS>SUBSTRUCTURE
     1 A77         1 TEMP              0 ****  ****    0 ROOT
