@<TRIPOS>MOLECULE
A77
  116   119     1     0     0
SMALL
abcg2


@<TRIPOS>ATOM
      1 C1           3.5930     2.8390    10.5690 c          1 A77       0.662600
      2 O2           3.3510     3.8530    11.2380 o          1 A77      -0.645600
      3 N3           3.9560     2.8950     9.2510 n          1 A77      -0.430800
      4 C4           4.2350     1.6960     8.4710 c3         1 A77       0.085800
      5 C5           4.1320     4.1960     8.6110 c3         1 A77       0.067700
      6 C6           5.5870     4.5950     8.5020 ca         1 A77       0.310800
      7 C7           6.3100     4.3620     7.3330 ca         1 A77      -0.158000
      8 N8           6.1500     5.1450     9.5870 nb         1 A77      -0.647000
      9 C9           7.6590     4.6900     7.2930 ca         1 A77      -0.076000
     10 C10          7.4460     5.4590     9.5390 ca         1 A77       0.335900
     11 C11          8.2440     5.2480     8.4210 ca         1 A77      -0.157500
     12 N21          3.4900     1.5860    11.1010 ns         1 A77      -0.519900
     13 C22          3.1970     1.3620    12.5040 c3         1 A77       0.049700
     14 C23          4.3430     0.5170    13.0700 c          1 A77       0.572600
     15 O24          4.5430    -0.6270    12.6630 o          1 A77      -0.588100
     16 C25          1.8370     0.6800    12.7340 c3         1 A77      -0.068200
     17 C26          1.5850     0.4980    14.2310 c3         1 A77      -0.088850
     18 C27          0.7080     1.4780    12.0850 c3         1 A77      -0.088850
     19 N37          5.0940     1.1230    14.0070 ns         1 A77      -0.504900
     20 C38          6.3100     0.5700    14.5840 c3         1 A77       0.077700
     21 C39          7.5490     1.2930    14.0270 c3         1 A77      -0.042600
     22 C40          7.7090     1.0870    12.5450 ca         1 A77      -0.084300
     23 C41          7.2840     2.0490    11.6280 ca         1 A77      -0.097250
     24 C42          7.4070     1.8300    10.2590 ca         1 A77      -0.111500
     25 C43          7.9470     0.6400     9.7860 ca         1 A77      -0.115500
     26 C44          8.3730    -0.3290    10.6920 ca         1 A77      -0.111500
     27 C45          8.2560    -0.1020    12.0570 ca         1 A77      -0.097250
     28 C46          6.2310     0.6750    16.1150 c3         1 A77       0.130300
     29 O47          7.4390     0.2450    16.7440 oh         1 A77      -0.662500
     30 O48          5.1180     0.0420    18.1570 oh         1 A77      -0.662500
     31 C49          5.0110    -0.0330    16.7360 c3         1 A77       0.130300
     32 N50          5.9040    -2.3380    16.5840 ns         1 A77      -0.504900
     33 C51          4.7690    -1.4770    16.2700 c3         1 A77       0.077700
     34 C52          3.4720    -2.0410    16.8800 c3         1 A77      -0.042600
     35 C53          3.0790    -3.3630    16.2780 ca         1 A77      -0.084300
     36 C54          3.3650    -4.5640    16.9250 ca         1 A77      -0.097250
     37 C55          3.0360    -5.7830    16.3420 ca         1 A77      -0.111500
     38 C56          2.4190    -5.8190    15.0970 ca         1 A77      -0.115500
     39 C57          2.1250    -4.6250    14.4410 ca         1 A77      -0.111500
     40 C58          2.4510    -3.4100    15.0300 ca         1 A77      -0.097250
     41 N81          6.9730    -5.4980    16.3790 ns         1 A77      -0.519900
     42 C82          7.5100    -4.1510    16.3200 c3         1 A77       0.049700
     43 C83          6.4270    -3.2440    15.7290 c          1 A77       0.572600
     44 O84          6.0890    -3.3490    14.5530 o          1 A77      -0.588100
     45 C85          8.8080    -4.0750    15.4980 c3         1 A77      -0.068200
     46 C86          9.2980    -2.6300    15.3920 c3         1 A77      -0.088850
     47 C87          9.8830    -4.9720    16.1100 c3         1 A77      -0.088850
     48 O98          7.0470    -5.6350    18.6500 o          1 A77      -0.645600
     49 N99          6.2660    -7.4220    17.4560 n          1 A77      -0.430800
     50 C2           6.0040    -8.0550    16.1710 c3         1 A77       0.085800
     51 C3           5.8730    -8.1390    18.6660 c3         1 A77       0.067700
     52 C8           4.3810    -8.0870    18.9140 ca         1 A77       0.310800
     53 C12          3.5400    -9.1010    18.4610 ca         1 A77      -0.158000
     54 N10          3.9120    -7.0070    19.5550 nb         1 A77      -0.647000
     55 C13          2.1710    -8.9880    18.6630 ca         1 A77      -0.076000
     56 C14          2.5950    -6.9070    19.7460 ca         1 A77       0.335900
     57 C15          1.6840    -7.8650    19.3170 ca         1 A77      -0.157500
     58 H12          4.4880     1.9910     7.4560 h1         1 A77       0.040700
     59 H13          5.0800     1.1350     8.8760 h1         1 A77       0.040700
     60 H14          3.3610     1.0430     8.4240 h1         1 A77       0.040700
     61 H15          3.6000     4.9330     9.2040 h1         1 A77       0.075700
     62 H16          3.6860     4.1520     7.6160 h1         1 A77       0.075700
     63 H17          5.8190     3.9270     6.4730 ha         1 A77       0.119000
     64 H18          8.2410     4.5120     6.3970 ha         1 A77       0.120000
     65 H19          7.8670     5.9010    10.4350 h4         1 A77       0.022600
     66 H20          9.2910     5.5180     8.4380 ha         1 A77       0.125500
     67 H28          3.7460     0.7780    10.5600 hn         1 A77       0.327500
     68 H29          3.1840     2.3410    12.9800 h1         1 A77       0.088700
     69 H30          1.8860    -0.3070    12.2630 hc         1 A77       0.064200
     70 H31          0.6340    -0.0070    14.4020 hc         1 A77       0.038283
     71 H32          2.3670    -0.0960    14.7040 hc         1 A77       0.038283
     72 H33          1.5500     1.4680    14.7340 hc         1 A77       0.038283
     73 H34          0.6260     2.4700    12.5370 hc         1 A77       0.038283
     74 H35          0.8720     1.6060    11.0140 hc         1 A77       0.038283
     75 H36         -0.2450     0.9650    12.2240 hc         1 A77       0.038283
     76 H59          4.8830     2.0860    14.2200 hn         1 A77       0.317000
     77 H60          6.3550    -0.4770    14.2890 h1         1 A77       0.101700
     78 H61          8.4240     0.9120    14.5530 hc         1 A77       0.058950
     79 H62          7.4640     2.3580    14.2570 hc         1 A77       0.058950
     80 H63          6.8530     2.9760    11.9870 ha         1 A77       0.116500
     81 H64          7.0760     2.5870     9.5630 ha         1 A77       0.111750
     82 H65          8.0370     0.4690     8.7200 ha         1 A77       0.106500
     83 H66          8.7990    -1.2580    10.3340 ha         1 A77       0.111750
     84 H67          8.5890    -0.8590    12.7580 ha         1 A77       0.116500
     85 H68          6.1480     1.7320    16.3810 h1         1 A77       0.079200
     86 H69          7.5890    -0.6850    16.5270 ho         1 A77       0.454500
     87 H70          6.0620    -0.0070    18.3710 ho         1 A77       0.454500
     88 H71          4.1220     0.5340    16.4600 h1         1 A77       0.079200
     89 H72          6.1520    -2.4230    17.5590 hn         1 A77       0.317000
     90 H73          4.6700    -1.4790    15.1860 h1         1 A77       0.101700
     91 H74          2.6800    -1.3080    16.7170 hc         1 A77       0.058950
     92 H75          3.6070    -2.1400    17.9580 hc         1 A77       0.058950
     93 H76          3.8500    -4.5480    17.8940 ha         1 A77       0.116500
     94 H77          3.2590    -6.7040    16.8600 ha         1 A77       0.111750
     95 H78          2.1660    -6.7680    14.6420 ha         1 A77       0.106500
     96 H79          1.6400    -4.6420    13.4730 ha         1 A77       0.111750
     97 H80          2.2230    -2.4850    14.5140 ha         1 A77       0.116500
     98 H88          6.6140    -5.8770    15.5200 hn         1 A77       0.327500
     99 H89          7.7240    -3.8560    17.3460 h1         1 A77       0.088700
    100 H90          8.5750    -4.4370    14.4920 hc         1 A77       0.064200
    101 H91         10.2330    -2.5830    14.8310 hc         1 A77       0.038283
    102 H92          8.5770    -1.9920    14.8800 hc         1 A77       0.038283
    103 H93          9.4870    -2.2130    16.3860 hc         1 A77       0.038283
    104 H94         10.1540    -4.6200    17.1090 hc         1 A77       0.038283
    105 H95          9.5420    -6.0040    16.1950 hc         1 A77       0.038283
    106 H96         10.7830    -4.9600    15.4930 hc         1 A77       0.038283
    107 H1           6.8740    -7.9770    15.5170 h1         1 A77       0.040700
    108 H10          5.1370    -7.6270    15.6610 h1         1 A77       0.040700
    109 H11          5.8100    -9.1120    16.3370 h1         1 A77       0.040700
    110 H2           6.3920    -7.6880    19.5060 h1         1 A77       0.075700
    111 H3           6.1950    -9.1770    18.5670 h1         1 A77       0.075700
    112 H4           3.9570    -9.9630    17.9560 ha         1 A77       0.119000
    113 H5           1.4980    -9.7620    18.3160 ha         1 A77       0.120000
    114 H6           2.2510    -6.0180    20.2640 h4         1 A77       0.022600
    115 H7           0.6260    -7.7300    19.4970 ha         1 A77       0.125500
    116 C97          6.7670    -6.1520    17.5610 c          1 A77       0.662600
@<TRIPOS>BOND
     1     1     2 2   
     2     1     3 1   
     3     1    12 1   
     4     3     4 1   
     5     3     5 1   
     6     4    58 1   
     7     4    59 1   
     8     4    60 1   
     9     5     6 1   
    10     5    61 1   
    11     5    62 1   
    12     6     7 ar  
    13     6     8 ar  
    14     7     9 ar  
    15     7    63 1   
    16     8    10 ar  
    17     9    11 ar  
    18     9    64 1   
    19    10    11 ar  
    20    10    65 1   
    21    11    66 1   
    22    12    13 1   
    23    12    67 1   
    24    13    14 1   
    25    13    16 1   
    26    13    68 1   
    27    14    15 2   
    28    14    19 1   
    29    16    17 1   
    30    16    18 1   
    31    16    69 1   
    32    17    70 1   
    33    17    71 1   
    34    17    72 1   
    35    18    73 1   
    36    18    74 1   
    37    18    75 1   
    38    19    20 1   
    39    19    76 1   
    40    20    21 1   
    41    20    28 1   
    42    20    77 1   
    43    21    22 1   
    44    21    78 1   
    45    21    79 1   
    46    22    23 ar  
    47    22    27 ar  
    48    23    24 ar  
    49    23    80 1   
    50    24    25 ar  
    51    24    81 1   
    52    25    26 ar  
    53    25    82 1   
    54    26    27 ar  
    55    26    83 1   
    56    27    84 1   
    57    28    29 1   
    58    28    31 1   
    59    28    85 1   
    60    29    86 1   
    61    30    31 1   
    62    30    87 1   
    63    31    33 1   
    64    31    88 1   
    65    32    33 1   
    66    32    43 1   
    67    32    89 1   
    68    33    34 1   
    69    33    90 1   
    70    34    35 1   
    71    34    91 1   
    72    34    92 1   
    73    35    36 ar  
    74    35    40 ar  
    75    36    37 ar  
    76    36    93 1   
    77    37    38 ar  
    78    37    94 1   
    79    38    39 ar  
    80    38    95 1   
    81    39    40 ar  
    82    39    96 1   
    83    40    97 1   
    84    41    42 1   
    85    41    98 1   
    86    41   116 1   
    87    42    43 1   
    88    42    45 1   
    89    42    99 1   
    90    43    44 2   
    91    45    46 1   
    92    45    47 1   
    93    45   100 1   
    94    46   101 1   
    95    46   102 1   
    96    46   103 1   
    97    47   104 1   
    98    47   105 1   
    99    47   106 1   
   100    48   116 2   
   101    49    50 1   
   102    49    51 1   
   103    49   116 1   
   104    50   107 1   
   105    50   108 1   
   106    50   109 1   
   107    51    52 1   
   108    51   110 1   
   109    51   111 1   
   110    52    53 ar  
   111    52    54 ar  
   112    53    55 ar  
   113    53   112 1   
   114    54    56 ar  
   115    55    57 ar  
   116    55   113 1   
   117    56    57 ar  
   118    56   114 1   
   119    57   115 1   
@<TRIPOS>SUBSTRUCTURE
     1 A77         1 TEMP              0 ****  ****    0 ROOT
