@<TRIPOS>MOLECULE
A78
  117   120     1     0     0
SMALL
No Charge or Current Charge


@<TRIPOS>ATOM
      1 C1          -5.0320    -2.0500    -2.0440 c          1 A78       0.619100
      2 O2          -4.3730    -2.5360    -2.9480 o          1 A78      -0.579100
      3 N3          -6.3950    -2.3580    -1.8550 n          1 A78      -0.418800
      4 C4          -7.0610    -3.3210    -2.7630 c3         1 A78       0.081300
      5 C5          -7.1730    -1.8520    -0.6890 c3         1 A78       0.123300
      6 C6          -7.3240    -0.3330    -0.6550 ca         1 A78      -0.010600
      7 C7          -6.9940     0.3950     0.5080 ca         1 A78      -0.115000
      8 N8          -7.7420     0.3240    -1.8210 na         1 A78      -0.072700
      9 C9          -7.0760     1.7970     0.5100 ca         1 A78       0.016000
     10 C10         -7.8170     1.7230    -1.8040 ca         1 A78      -0.047000
     11 C11         -7.4890     2.4640    -0.6540 ca         1 A78      -0.116000
     12 N22         -4.4930    -1.1690    -1.1410 ns         1 A78      -0.516900
     13 C23         -3.0870    -0.7210    -1.0980 c3         1 A78       0.004700
     14 C24         -2.7530    -0.3100     0.3630 c          1 A78       0.586100
     15 O25         -3.5900     0.1310     1.1410 o          1 A78      -0.584100
     16 C26         -2.8200     0.4060    -2.1420 c3         1 A78      -0.057700
     17 C27         -3.6490     1.6890    -1.8810 c3         1 A78      -0.092600
     18 C28         -1.3150     0.7330    -2.2900 c3         1 A78      -0.092600
     19 N38         -1.4450    -0.5260     0.7440 ns         1 A78      -0.489900
     20 C39         -1.0100    -0.6660     2.1410 c3         1 A78       0.096700
     21 C40         -0.9720    -2.1730     2.5100 c3         1 A78      -0.057100
     22 C41         -2.2560    -2.9070     2.1230 ca         1 A78      -0.091300
     23 C42         -2.2990    -3.7030     0.9610 ca         1 A78      -0.102000
     24 C43         -3.4990    -4.3210     0.5670 ca         1 A78      -0.110500
     25 C44         -4.6620    -4.1520     1.3350 ca         1 A78      -0.120000
     26 C45         -4.6250    -3.3650     2.4990 ca         1 A78      -0.110500
     27 C46         -3.4250    -2.7440     2.8910 ca         1 A78      -0.102000
     28 C47          0.3540     0.0340     2.3590 c3         1 A78      -0.122400
     29 O48         -0.4510     2.1150     1.3670 oh         1 A78      -0.668000
     30 C49          0.3070     1.5830     2.4630 c3         1 A78       0.171300
     31 N50          2.3700     2.0930     1.1570 ns         1 A78      -0.475900
     32 C51          1.7300     2.2210     2.4760 c3         1 A78       0.080700
     33 C52          1.7230     3.7030     2.9230 c3         1 A78      -0.050100
     34 C53          3.1190     4.3210     2.9360 ca         1 A78      -0.086300
     35 C54          3.5020     5.2410     1.9400 ca         1 A78      -0.102500
     36 C55          4.7930     5.7970     1.9470 ca         1 A78      -0.109500
     37 C56          5.7080     5.4380     2.9510 ca         1 A78      -0.119000
     38 C57          5.3320     4.5220     3.9470 ca         1 A78      -0.109500
     39 C58          4.0410     3.9650     3.9400 ca         1 A78      -0.102500
     40 N81          5.0840     0.5130    -0.8380 ns         1 A78      -0.505900
     41 C82          3.7990     1.2270    -0.6600 c3         1 A78      -0.004300
     42 C83          3.4110     1.2480     0.8470 c          1 A78       0.583100
     43 O84          3.9710     0.5610     1.6940 o          1 A78      -0.607100
     44 C85          2.6620     0.6170    -1.5440 c3         1 A78      -0.057700
     45 C86          2.8520     0.9150    -3.0480 c3         1 A78      -0.087600
     46 C87          2.4570    -0.9000    -1.3060 c3         1 A78      -0.087600
     47 O98          5.9870     1.8030    -2.4760 o          1 A78      -0.574100
     48 N99          7.1930    -0.0200    -1.7470 n          1 A78      -0.418800
     49 C2           8.3190     0.2590    -2.6700 c3         1 A78       0.080300
     50 C3           7.3500    -1.1430    -0.7800 c3         1 A78       0.122300
     51 C8           6.3180    -2.2560    -0.9460 ca         1 A78      -0.009600
     52 C12          5.6100    -2.7520     0.1700 ca         1 A78      -0.115000
     53 N10          6.0700    -2.7530    -2.2340 na         1 A78      -0.073700
     54 C13          4.6430    -3.7570     0.0030 ca         1 A78       0.015000
     55 C14          5.1030    -3.7550    -2.3850 ca         1 A78      -0.049000
     56 C15          4.3890    -4.2600    -1.2830 ca         1 A78      -0.117000
     57 H12         -6.7050    -4.3360    -2.5460 h1         1 A78       0.060367
     58 H13         -8.1510    -3.2910    -2.6380 h1         1 A78       0.060367
     59 H14         -6.8250    -3.0760    -3.8070 h1         1 A78       0.060367
     60 H15         -8.1770    -2.2990    -0.6870 h1         1 A78       0.101700
     61 H16         -6.6840    -2.1980     0.2320 h1         1 A78       0.101700
     62 H17         -6.6630    -0.1200     1.4090 ha         1 A78       0.175000
     63 H18         -7.9720    -0.2010    -2.6590 hn         1 A78       0.411000
     64 H19         -6.8170     2.3610     1.4050 ha         1 A78       0.173000
     65 H20         -8.1400     2.2200    -2.7220 h4         1 A78       0.187000
     66 H21         -7.5540     3.5500    -0.6650 ha         1 A78       0.181000
     67 H29         -5.1140    -0.8150    -0.4260 hn         1 A78       0.323500
     68 H30         -2.4530    -1.5850    -1.3400 h1         1 A78       0.092700
     69 H31         -3.1420     0.0160    -3.1160 hc         1 A78       0.056700
     70 H32         -3.4870     2.4200    -2.6820 hc         1 A78       0.041367
     71 H33         -4.7210     1.4650    -1.8460 hc         1 A78       0.041367
     72 H34         -3.3640     2.1590    -0.9320 hc         1 A78       0.041367
     73 H35         -0.9190     1.2130    -1.3880 hc         1 A78       0.041367
     74 H36         -0.7350    -0.1780    -2.4830 hc         1 A78       0.041367
     75 H37         -1.1520     1.4170    -3.1320 hc         1 A78       0.041367
     76 H59         -0.8320    -0.9010     0.0300 hn         1 A78       0.301500
     77 H60         -1.7510    -0.1890     2.8000 h1         1 A78       0.100700
     78 H61         -0.1110    -2.6400     2.0150 hc         1 A78       0.063700
     79 H62         -0.7930    -2.2740     3.5870 hc         1 A78       0.063700
     80 H63         -1.4070    -3.8300     0.3510 ha         1 A78       0.116000
     81 H64         -3.5280    -4.9260    -0.3370 ha         1 A78       0.122000
     82 H65         -5.5910    -4.6290     1.0300 ha         1 A78       0.112000
     83 H66         -5.5250    -3.2310     3.0950 ha         1 A78       0.122000
     84 H67         -3.4090    -2.1240     3.7850 ha         1 A78       0.116000
     85 H68          0.7990    -0.3420     3.2890 hc         1 A78       0.062700
     86 H69          1.0360    -0.2690     1.5560 hc         1 A78       0.062700
     87 H70         -1.0520     1.3920     1.0840 ho         1 A78       0.454000
     88 H71         -0.1910     1.8320     3.4110 h1         1 A78       0.077700
     89 H72          1.9510     2.6020     0.3890 hn         1 A78       0.317500
     90 H73          2.3300     1.6690     3.2120 h1         1 A78       0.087700
     91 H74          1.0610     4.2760     2.2630 hc         1 A78       0.069700
     92 H75          1.2820     3.7710     3.9250 hc         1 A78       0.069700
     93 H76          2.8030     5.5220     1.1560 ha         1 A78       0.114500
     94 H77          5.0840     6.5060     1.1740 ha         1 A78       0.118500
     95 H78          6.7070     5.8690     2.9560 ha         1 A78       0.109000
     96 H79          6.0400     4.2420     4.7250 ha         1 A78       0.118500
     97 H80          3.7590     3.2540     4.7130 ha         1 A78       0.114500
     98 H88          5.2530    -0.2920    -0.2510 hn         1 A78       0.317500
     99 H89          3.9390     2.2790    -0.9450 h1         1 A78       0.097700
    100 H90          1.7250     1.1110    -1.2580 hc         1 A78       0.055700
    101 H91          1.9730     0.5910    -3.6190 hc         1 A78       0.038200
    102 H92          2.9850     1.9910    -3.2180 hc         1 A78       0.038200
    103 H93          3.7270     0.3900    -3.4480 hc         1 A78       0.038200
    104 H94          2.3210    -1.1230    -0.2420 hc         1 A78       0.038200
    105 H95          1.5690    -1.2580    -1.8410 hc         1 A78       0.038200
    106 H96          3.3190    -1.4720    -1.6670 hc         1 A78       0.038200
    107 H10          9.0050    -0.5960    -2.7240 h1         1 A78       0.061033
    108 H1           8.8740     1.1380    -2.3180 h1         1 A78       0.061033
    109 H11          7.9360     0.4600    -3.6790 h1         1 A78       0.061033
    110 H2           8.3510    -1.5830    -0.8800 h1         1 A78       0.102700
    111 H3           7.2990    -0.7360     0.2390 h1         1 A78       0.102700
    112 H4           5.8060    -2.3620     1.1680 ha         1 A78       0.175000
    113 H5           6.5730    -2.3880    -3.0370 hn         1 A78       0.414000
    114 H6           4.0950    -4.1420     0.8620 ha         1 A78       0.173000
    115 H7           4.9220    -4.1310    -3.3940 h4         1 A78       0.186000
    116 H8           3.6410    -5.0390    -1.4250 ha         1 A78       0.180000
    117 C97          6.0720     0.8360    -1.7360 c          1 A78       0.618100
@<TRIPOS>BOND
     1     1     2 2   
     2     1     3 1   
     3     1    12 1   
     4     3     4 1   
     5     3     5 1   
     6     4    57 1   
     7     4    58 1   
     8     4    59 1   
     9     5     6 1   
    10     5    60 1   
    11     5    61 1   
    12     6     7 ar  
    13     6     8 2   
    14     7     9 ar  
    15     7    62 1   
    16     8    10 1   
    17     8    63 1   
    18     9    11 ar  
    19     9    64 1   
    20    10    11 ar  
    21    10    65 1   
    22    11    66 1   
    23    12    13 1   
    24    12    67 1   
    25    13    14 1   
    26    13    16 1   
    27    13    68 1   
    28    14    15 2   
    29    14    19 1   
    30    16    17 1   
    31    16    18 1   
    32    16    69 1   
    33    17    70 1   
    34    17    71 1   
    35    17    72 1   
    36    18    73 1   
    37    18    74 1   
    38    18    75 1   
    39    19    20 1   
    40    19    76 1   
    41    20    21 1   
    42    20    28 1   
    43    20    77 1   
    44    21    22 1   
    45    21    78 1   
    46    21    79 1   
    47    22    23 ar  
    48    22    27 ar  
    49    23    24 ar  
    50    23    80 1   
    51    24    25 ar  
    52    24    81 1   
    53    25    26 ar  
    54    25    82 1   
    55    26    27 ar  
    56    26    83 1   
    57    27    84 1   
    58    28    30 1   
    59    28    85 1   
    60    28    86 1   
    61    29    30 1   
    62    29    87 1   
    63    30    32 1   
    64    30    88 1   
    65    31    32 1   
    66    31    42 1   
    67    31    89 1   
    68    32    33 1   
    69    32    90 1   
    70    33    34 1   
    71    33    91 1   
    72    33    92 1   
    73    34    35 ar  
    74    34    39 ar  
    75    35    36 ar  
    76    35    93 1   
    77    36    37 ar  
    78    36    94 1   
    79    37    38 ar  
    80    37    95 1   
    81    38    39 ar  
    82    38    96 1   
    83    39    97 1   
    84    40    41 1   
    85    40    98 1   
    86    40   117 1   
    87    41    42 1   
    88    41    44 1   
    89    41    99 1   
    90    42    43 2   
    91    44    45 1   
    92    44    46 1   
    93    44   100 1   
    94    45   101 1   
    95    45   102 1   
    96    45   103 1   
    97    46   104 1   
    98    46   105 1   
    99    46   106 1   
   100    47   117 2   
   101    48    49 1   
   102    48    50 1   
   103    48   117 1   
   104    49   107 1   
   105    49   108 1   
   106    49   109 1   
   107    50    51 1   
   108    50   110 1   
   109    50   111 1   
   110    51    52 ar  
   111    51    53 2   
   112    52    54 ar  
   113    52   112 1   
   114    53    55 1   
   115    53   113 1   
   116    54    56 ar  
   117    54   114 1   
   118    55    56 ar  
   119    55   115 1   
   120    56   116 1   
@<TRIPOS>SUBSTRUCTURE
     1 A78         1 TEMP              0 ****  ****    0 ROOT
