@<TRIPOS>MOLECULE
A78
  117   120     1     0     0
SMALL
bcc


@<TRIPOS>ATOM
      1 C1          -5.4520    -1.6360    -1.3560 c          1 A78       0.753100
      2 O2          -4.7720    -2.3640    -2.0580 o          1 A78      -0.579100
      3 N3          -6.8050    -1.7910    -1.2430 n          1 A78      -0.485800
      4 C4          -7.4570    -2.7970    -2.0640 c3         1 A78       0.081300
      5 C5          -7.6680    -0.8040    -0.6360 c3         1 A78       0.123300
      6 C6          -7.9910     0.3440    -1.5560 ca         1 A78      -0.010600
      7 C7          -9.2710     0.6750    -1.9460 ca         1 A78      -0.133000
      8 N8          -6.9740     1.0800    -2.0340 na         1 A78      -0.073100
      9 C9          -9.4720     1.7450    -2.8080 ca         1 A78      -0.002000
     10 C10         -7.1270     2.1130    -2.8650 ca         1 A78      -0.014300
     11 C11         -8.3890     2.4750    -3.2760 ca         1 A78      -0.134000
     12 N22         -4.9100    -0.5610    -0.6730 ns         1 A78      -0.583900
     13 C23         -3.4630    -0.4720    -0.5580 c3         1 A78       0.004700
     14 C24         -3.1560    -0.1290     0.8960 c          1 A78       0.653100
     15 O25         -3.9580     0.4730     1.5870 o          1 A78      -0.584100
     16 C26         -2.8860     0.5520    -1.5600 c3         1 A78      -0.057700
     17 C27         -3.2700     1.9900    -1.2330 c3         1 A78      -0.092600
     18 C28         -1.3770     0.4150    -1.7340 c3         1 A78      -0.092600
     19 N38         -1.9310    -0.5090     1.3300 ns         1 A78      -0.556900
     20 C39         -1.5950    -0.6440     2.7470 c3         1 A78       0.096700
     21 C40         -1.9270    -2.0690     3.2270 c3         1 A78      -0.057100
     22 C41         -3.3290    -2.4730     2.8710 ca         1 A78      -0.091300
     23 C42         -3.5830    -3.2170     1.7210 ca         1 A78      -0.120000
     24 C43         -4.8840    -3.5100     1.3330 ca         1 A78      -0.128500
     25 C44         -5.9530    -3.0610     2.0940 ca         1 A78      -0.138000
     26 C45         -5.7120    -2.3300     3.2520 ca         1 A78      -0.128500
     27 C46         -4.4100    -2.0400     3.6350 ca         1 A78      -0.120000
     28 C47         -0.1160    -0.3240     2.9430 c3         1 A78      -0.122400
     29 O48         -0.4840     1.9270     1.9820 oh         1 A78      -0.605800
     30 C49          0.2330     1.1660     2.9370 c3         1 A78       0.148100
     31 N50          2.0630     1.0510     1.3410 ns         1 A78      -0.542900
     32 C51          1.7390     1.3540     2.7200 c3         1 A78       0.080700
     33 C52          2.2210     2.7710     3.0810 c3         1 A78      -0.050100
     34 C53          3.6810     2.9330     2.7670 ca         1 A78      -0.086300
     35 C54          4.0930     3.4500     1.5410 ca         1 A78      -0.120500
     36 C55          5.4380     3.4760     1.1950 ca         1 A78      -0.127500
     37 C56          6.3940     2.9890     2.0760 ca         1 A78      -0.137000
     38 C57          5.9960     2.4940     3.3120 ca         1 A78      -0.127500
     39 C58          4.6510     2.4650     3.6500 ca         1 A78      -0.120500
     40 N81          4.8920     0.3040    -0.7300 ns         1 A78      -0.572900
     41 C82          3.4590     0.4710    -0.5430 c3         1 A78      -0.004300
     42 C83          3.1940     0.4380     0.9600 c          1 A78       0.650100
     43 O84          3.9550    -0.1410     1.7200 o          1 A78      -0.607100
     44 C85          2.6250    -0.5950    -1.2810 c3         1 A78      -0.057700
     45 C86          2.8440    -0.5070    -2.7860 c3         1 A78      -0.087600
     46 C87          2.8680    -2.0090    -0.7700 c3         1 A78      -0.087600
     47 O98          5.0140     2.0790    -2.1600 o          1 A78      -0.574100
     48 N99          6.9440     1.2350    -1.3360 n          1 A78      -0.485800
     49 C2           7.7390     2.0880    -2.2030 c3         1 A78       0.080300
     50 C3           7.6610     0.1790    -0.6580 c3         1 A78       0.122300
     51 C8           7.8150    -1.0660    -1.4920 ca         1 A78      -0.009600
     52 C12          9.0320    -1.6110    -1.8410 ca         1 A78      -0.133000
     53 N10          6.7010    -1.6780    -1.9250 na         1 A78      -0.074100
     54 C13          9.0720    -2.7630    -2.6160 ca         1 A78      -0.003000
     55 C14          6.6990    -2.7830    -2.6730 ca         1 A78      -0.016300
     56 C15          7.8930    -3.3590    -3.0390 ca         1 A78      -0.135000
     57 H12         -6.8390    -3.6850    -2.1420 h1         1 A78       0.060367
     58 H13         -8.3950    -3.0790    -1.5900 h1         1 A78       0.060367
     59 H14         -7.6740    -2.4330    -3.0710 h1         1 A78       0.060367
     60 H15         -8.6020    -1.2870    -0.3570 h1         1 A78       0.101700
     61 H16         -7.2620    -0.4220     0.3040 h1         1 A78       0.101700
     62 H17        -10.1050     0.0950    -1.5780 ha         1 A78       0.193000
     63 H18         -6.0280     0.8260    -1.7310 hn         1 A78       0.360700
     64 H19        -10.4750     2.0050    -3.1160 ha         1 A78       0.191000
     65 H20         -6.2290     2.6240    -3.1790 h4         1 A78       0.205000
     66 H21         -8.5140     3.3110    -3.9470 ha         1 A78       0.199000
     67 H29         -5.3720    -0.2690     0.1800 hn         1 A78       0.323500
     68 H30         -3.0280    -1.4470    -0.7920 h1         1 A78       0.092700
     69 H31         -3.3440     0.2800    -2.5170 hc         1 A78       0.056700
     70 H32         -3.0370     2.6450    -2.0730 hc         1 A78       0.041367
     71 H33         -4.3330     2.1060    -1.0130 hc         1 A78       0.041367
     72 H34         -2.7230     2.3690    -0.3680 hc         1 A78       0.041367
     73 H35         -0.8230     0.7570    -0.8570 hc         1 A78       0.041367
     74 H36         -1.0860    -0.6170    -1.9380 hc         1 A78       0.041367
     75 H37         -1.0380     1.0240    -2.5710 hc         1 A78       0.041367
     76 H59         -1.4160    -1.1270     0.7190 hn         1 A78       0.301500
     77 H60         -2.2120     0.0650     3.3000 h1         1 A78       0.100700
     78 H61         -1.2110    -2.7680     2.7840 hc         1 A78       0.063700
     79 H62         -1.7770    -2.1030     4.3090 hc         1 A78       0.063700
     80 H63         -2.7530    -3.5760     1.1230 ha         1 A78       0.134000
     81 H64         -5.0590    -4.0890     0.4360 ha         1 A78       0.140000
     82 H65         -6.9680    -3.2840     1.7920 ha         1 A78       0.130000
     83 H66         -6.5410    -1.9840     3.8570 ha         1 A78       0.140000
     84 H67         -4.2320    -1.4600     4.5320 ha         1 A78       0.134000
     85 H68          0.2120    -0.7310     3.9010 hc         1 A78       0.062700
     86 H69          0.4610    -0.8570     2.1780 hc         1 A78       0.062700
     87 H70         -0.9090     1.3290     1.3580 ho         1 A78       0.415000
     88 H71         -0.0150     1.5750     3.9230 h1         1 A78       0.077700
     89 H72          1.5840     1.6090     0.6500 hn         1 A78       0.317500
     90 H73          2.2650     0.6370     3.3520 h1         1 A78       0.087700
     91 H74          1.6310     3.5090     2.5310 hc         1 A78       0.069700
     92 H75          2.0330     2.9350     4.1450 hc         1 A78       0.069700
     93 H76          3.3560     3.8330     0.8450 ha         1 A78       0.132500
     94 H77          5.7390     3.8760     0.2350 ha         1 A78       0.136500
     95 H78          7.4420     3.0050     1.8060 ha         1 A78       0.127000
     96 H79          6.7350     2.1250     4.0120 ha         1 A78       0.136500
     97 H80          4.3470     2.0590     4.6080 ha         1 A78       0.132500
     98 H88          5.3150    -0.0090     0.1390 hn         1 A78       0.317500
     99 H89          3.1670     1.4480    -0.9360 h1         1 A78       0.097700
    100 H90          1.5750    -0.3440    -1.0920 hc         1 A78       0.055700
    101 H91          2.1880    -1.2080    -3.3040 hc         1 A78       0.038200
    102 H92          2.6350     0.4930    -3.1680 hc         1 A78       0.038200
    103 H93          3.8690    -0.7580    -3.0660 hc         1 A78       0.038200
    104 H94          2.6170    -2.1260     0.2850 hc         1 A78       0.038200
    105 H95          2.2600    -2.7210    -1.3290 hc         1 A78       0.038200
    106 H96          3.9090    -2.3170    -0.8910 hc         1 A78       0.038200
    107 H10          8.6790     2.3200    -1.7060 h1         1 A78       0.061033
    108 H1           7.2210     3.0220    -2.3950 h1         1 A78       0.061033
    109 H11          7.9620     1.6090    -3.1590 h1         1 A78       0.061033
    110 H2           8.6560     0.5440    -0.4100 h1         1 A78       0.102700
    111 H3           7.2080    -0.0730     0.3040 h1         1 A78       0.102700
    112 H4           9.9420    -1.1330    -1.5100 ha         1 A78       0.193000
    113 H5           5.8040    -1.2580    -1.6560 hn         1 A78       0.363700
    114 H6          10.0250    -3.1920    -2.8890 ha         1 A78       0.191000
    115 H7           5.7340    -3.1790    -2.9550 h4         1 A78       0.204000
    116 H8           7.8930    -4.2530    -3.6430 ha         1 A78       0.198000
    117 C97          5.5830     1.2770    -1.4420 c          1 A78       0.752100
@<TRIPOS>BOND
     1     1     2 2   
     2     1     3 1   
     3     1    12 1   
     4     3     4 1   
     5     3     5 1   
     6     4    57 1   
     7     4    58 1   
     8     4    59 1   
     9     5     6 1   
    10     5    60 1   
    11     5    61 1   
    12     6     7 ar  
    13     6     8 2   
    14     7     9 ar  
    15     7    62 1   
    16     8    10 1   
    17     8    63 1   
    18     9    11 ar  
    19     9    64 1   
    20    10    11 ar  
    21    10    65 1   
    22    11    66 1   
    23    12    13 1   
    24    12    67 1   
    25    13    14 1   
    26    13    16 1   
    27    13    68 1   
    28    14    15 2   
    29    14    19 1   
    30    16    17 1   
    31    16    18 1   
    32    16    69 1   
    33    17    70 1   
    34    17    71 1   
    35    17    72 1   
    36    18    73 1   
    37    18    74 1   
    38    18    75 1   
    39    19    20 1   
    40    19    76 1   
    41    20    21 1   
    42    20    28 1   
    43    20    77 1   
    44    21    22 1   
    45    21    78 1   
    46    21    79 1   
    47    22    23 ar  
    48    22    27 ar  
    49    23    24 ar  
    50    23    80 1   
    51    24    25 ar  
    52    24    81 1   
    53    25    26 ar  
    54    25    82 1   
    55    26    27 ar  
    56    26    83 1   
    57    27    84 1   
    58    28    30 1   
    59    28    85 1   
    60    28    86 1   
    61    29    30 1   
    62    29    87 1   
    63    30    32 1   
    64    30    88 1   
    65    31    32 1   
    66    31    42 1   
    67    31    89 1   
    68    32    33 1   
    69    32    90 1   
    70    33    34 1   
    71    33    91 1   
    72    33    92 1   
    73    34    35 ar  
    74    34    39 ar  
    75    35    36 ar  
    76    35    93 1   
    77    36    37 ar  
    78    36    94 1   
    79    37    38 ar  
    80    37    95 1   
    81    38    39 ar  
    82    38    96 1   
    83    39    97 1   
    84    40    41 1   
    85    40    98 1   
    86    40   117 1   
    87    41    42 1   
    88    41    44 1   
    89    41    99 1   
    90    42    43 2   
    91    44    45 1   
    92    44    46 1   
    93    44   100 1   
    94    45   101 1   
    95    45   102 1   
    96    45   103 1   
    97    46   104 1   
    98    46   105 1   
    99    46   106 1   
   100    47   117 2   
   101    48    49 1   
   102    48    50 1   
   103    48   117 1   
   104    49   107 1   
   105    49   108 1   
   106    49   109 1   
   107    50    51 1   
   108    50   110 1   
   109    50   111 1   
   110    51    52 ar  
   111    51    53 2   
   112    52    54 ar  
   113    52   112 1   
   114    53    55 1   
   115    53   113 1   
   116    54    56 ar  
   117    54   114 1   
   118    55    56 ar  
   119    55   115 1   
   120    56   116 1   
@<TRIPOS>SUBSTRUCTURE
     1 A78         1 TEMP              0 ****  ****    0 ROOT
