@<TRIPOS>MOLECULE
A79
  116   119     1     0     0
SMALL
bcc


@<TRIPOS>ATOM
      1 C1           0.2850     1.2410    -6.1470 c          1 A79       0.793100
      2 O2          -0.6970     1.7970    -6.6300 o          1 A79      -0.651600
      3 N3           1.5530     1.6900    -6.3950 n          1 A79      -0.467300
      4 C4           1.7040     2.7160    -7.4070 c3         1 A79       0.104300
      5 C5           2.7080     0.9090    -6.0320 c3         1 A79       0.047200
      6 C6           2.8070    -0.4270    -6.7390 ca         1 A79       0.370600
      7 C7           3.4940    -1.4810    -6.1450 ca         1 A79      -0.238300
      8 N8           2.2290    -0.5330    -7.9280 nb         1 A79      -0.660000
      9 C9           3.5790    -2.6880    -6.8190 ca         1 A79      -0.086500
     10 C10          2.3110    -1.6940    -8.5680 ca         1 A79       0.406700
     11 C11          2.9730    -2.8020    -8.0610 ca         1 A79      -0.245800
     12 N21          0.1800     0.1520    -5.3410 ns         1 A79      -0.581400
     13 C22         -1.0860    -0.3650    -4.8920 c3         1 A79       0.053200
     14 C23         -1.0350    -0.4640    -3.3720 c          1 A79       0.659600
     15 O24         -0.0370    -0.8670    -2.7930 o          1 A79      -0.614600
     16 C25         -1.4480    -1.7150    -5.5470 c3         1 A79      -0.067200
     17 C26         -1.7150    -1.5150    -7.0350 c3         1 A79      -0.088600
     18 C27         -0.3850    -2.7900    -5.3440 c3         1 A79      -0.088600
     19 N37         -2.1650    -0.0940    -2.7440 ns         1 A79      -0.555900
     20 C38         -2.2420     0.0910    -1.3150 c3         1 A79       0.068200
     21 C39         -2.1280     1.5880    -0.9680 c3         1 A79      -0.054100
     22 C40         -0.7940     2.1240    -1.4030 ca         1 A79      -0.088800
     23 C41         -0.6180     2.6780    -2.6680 ca         1 A79      -0.119000
     24 C42          0.6420     3.0640    -3.1060 ca         1 A79      -0.125250
     25 C43          1.7440     2.9120    -2.2770 ca         1 A79      -0.133000
     26 C44          1.5760     2.3810    -1.0030 ca         1 A79      -0.125250
     27 C45          0.3170     1.9900    -0.5720 ca         1 A79      -0.119000
     28 C46         -3.5000    -0.5900    -0.7570 c3         1 A79       0.107600
     29 O47         -4.6730    -0.0930    -1.3590 oh         1 A79      -0.584300
     30 O48         -4.6430    -1.3040     1.2740 oh         1 A79      -0.584300
     31 C49         -3.5810    -0.5270     0.7750 c3         1 A79       0.107600
     32 N50         -2.3490    -0.6710     2.8810 ns         1 A79      -0.555900
     33 C51         -2.2520    -0.8750     1.4560 c3         1 A79       0.068200
     34 C52         -1.7380    -2.2960     1.1610 c3         1 A79      -0.054100
     35 C53         -0.3610    -2.4740     1.7380 ca         1 A79      -0.088800
     36 C54         -0.1820    -2.9740     3.0240 ca         1 A79      -0.119000
     37 C55          1.0820    -3.0240     3.5980 ca         1 A79      -0.125250
     38 C56          2.1870    -2.5830     2.8830 ca         1 A79      -0.133000
     39 C57          2.0210    -2.0980     1.5920 ca         1 A79      -0.125250
     40 C58          0.7560    -2.0420     1.0260 ca         1 A79      -0.119000
     41 N81         -0.1790    -0.2280     5.5740 ns         1 A79      -0.581400
     42 C82         -1.5310    -0.0990     5.0960 c3         1 A79       0.053200
     43 C83         -1.4200     0.0050     3.5790 c          1 A79       0.659600
     44 O84         -0.5280     0.6610     3.0620 o          1 A79      -0.614600
     45 C85         -2.2760     1.0990     5.7260 c3         1 A79      -0.067200
     46 C86         -1.5880     2.4370     5.4810 c3         1 A79      -0.088600
     47 C87         -3.7370     1.1370     5.2950 c3         1 A79      -0.088600
     48 O98         -0.7230    -1.3320     7.4690 o          1 A79      -0.651600
     49 N99          1.4730    -1.0170     6.9860 n          1 A79      -0.467300
     50 C2           1.8520    -1.4810     8.3060 c3         1 A79       0.104300
     51 C3           2.4700    -0.3580     6.1800 c3         1 A79       0.047200
     52 C8           2.4470     1.1530     6.2720 ca         1 A79       0.370600
     53 C12          2.8090     1.9320     5.1780 ca         1 A79      -0.238300
     54 N10          2.0730     1.6830     7.4310 nb         1 A79      -0.660000
     55 C13          2.7790     3.3120     5.3000 ca         1 A79      -0.086500
     56 C14          2.0460     3.0050     7.5400 ca         1 A79       0.406700
     57 C15          2.3880     3.8660     6.5090 ca         1 A79      -0.245800
     58 H12          1.0440     3.5580    -7.2100 h1         1 A79       0.042200
     59 H13          2.7270     3.0850    -7.3790 h1         1 A79       0.042200
     60 H14          1.5040     2.3440    -8.4140 h1         1 A79       0.042200
     61 H15          3.5960     1.4960    -6.2710 h1         1 A79       0.062700
     62 H16          2.7620     0.7610    -4.9480 h1         1 A79       0.062700
     63 H17          3.9450    -1.3570    -5.1680 ha         1 A79       0.143000
     64 H18          4.1020    -3.5270    -6.3780 ha         1 A79       0.139500
     65 H19          1.8240    -1.7460    -9.5350 h4         1 A79       0.021100
     66 H20          3.0030    -3.7250    -8.6240 ha         1 A79       0.143000
     67 H28          0.9850    -0.2060    -4.8560 hn         1 A79       0.332500
     68 H29         -1.8580     0.3530    -5.1750 h1         1 A79       0.080200
     69 H30         -2.3780    -2.0500    -5.0740 hc         1 A79       0.061200
     70 H31         -2.0410    -2.4500    -7.4940 hc         1 A79       0.037867
     71 H32         -2.4890    -0.7670    -7.2130 hc         1 A79       0.037867
     72 H33         -0.8100    -1.1930    -7.5540 hc         1 A79       0.037867
     73 H34          0.5650    -2.4890    -5.7930 hc         1 A79       0.037867
     74 H35         -0.2060    -3.0170    -4.2940 hc         1 A79       0.037867
     75 H36         -0.6930    -3.7150    -5.8330 hc         1 A79       0.037867
     76 H59         -2.9160     0.2930    -3.2950 hn         1 A79       0.324000
     77 H60         -1.3700    -0.4200    -0.9060 h1         1 A79       0.093700
     78 H61         -2.9380     2.1420    -1.4490 hc         1 A79       0.053950
     79 H62         -2.2490     1.7250     0.1100 hc         1 A79       0.053950
     80 H63         -1.4720     2.8020    -3.3240 ha         1 A79       0.136500
     81 H64          0.7620     3.4830    -4.0970 ha         1 A79       0.133250
     82 H65          2.7270     3.2100    -2.6180 ha         1 A79       0.126000
     83 H66          2.4290     2.2680    -0.3460 ha         1 A79       0.133250
     84 H67          0.1990     1.5710     0.4230 ha         1 A79       0.136500
     85 H68         -3.4440    -1.6420    -1.0630 h1         1 A79       0.082200
     86 H69         -4.8770     0.7750    -0.9960 ho         1 A79       0.407500
     87 H70         -4.5670    -2.2020     0.9340 ho         1 A79       0.407500
     88 H71         -3.8180     0.5030     1.0680 h1         1 A79       0.082200
     89 H72         -3.0260    -1.2230     3.3840 hn         1 A79       0.324000
     90 H73         -1.4970    -0.1700     1.1110 h1         1 A79       0.093700
     91 H74         -2.4260    -3.0360     1.5790 hc         1 A79       0.053950
     92 H75         -1.7110    -2.4610     0.0810 hc         1 A79       0.053950
     93 H76         -1.0400    -3.3230     3.5870 ha         1 A79       0.136500
     94 H77          1.2020    -3.4030     4.6050 ha         1 A79       0.133250
     95 H78          3.1740    -2.6250     3.3260 ha         1 A79       0.126000
     96 H79          2.8800    -1.7600     1.0260 ha         1 A79       0.133250
     97 H80          0.6380    -1.6530     0.0190 ha         1 A79       0.136500
     98 H88          0.5220     0.1850     4.9820 hn         1 A79       0.332500
     99 H89         -2.0830    -1.0060     5.3590 h1         1 A79       0.080200
    100 H90         -2.2530     0.9020     6.8020 hc         1 A79       0.061200
    101 H91         -2.0510     3.2090     6.0960 hc         1 A79       0.037867
    102 H92         -0.5290     2.4020     5.7380 hc         1 A79       0.037867
    103 H93         -1.6720     2.7570     4.4410 hc         1 A79       0.037867
    104 H94         -3.8450     1.3580     4.2310 hc         1 A79       0.037867
    105 H95         -4.2430     0.1900     5.4930 hc         1 A79       0.037867
    106 H96         -4.2730     1.9130     5.8430 hc         1 A79       0.037867
    107 H1           1.2720    -2.3540     8.5930 h1         1 A79       0.042200
    108 H10          2.9000    -1.7720     8.2870 h1         1 A79       0.042200
    109 H11          1.7270    -0.7110     9.0700 h1         1 A79       0.042200
    110 H2           3.4500    -0.7150     6.5040 h1         1 A79       0.062700
    111 H3           2.3880    -0.6710     5.1340 h1         1 A79       0.062700
    112 H4           3.1000     1.4640     4.2460 ha         1 A79       0.143000
    113 H5           3.0490     3.9420     4.4620 ha         1 A79       0.139500
    114 H6           1.7330     3.4020     8.5000 h4         1 A79       0.021100
    115 H7           2.3430     4.9370     6.6520 ha         1 A79       0.143000
    116 C97          0.1390    -0.8770     6.7200 c          1 A79       0.793100
@<TRIPOS>BOND
     1     1     2 2   
     2     1     3 1   
     3     1    12 1   
     4     3     4 1   
     5     3     5 1   
     6     4    58 1   
     7     4    59 1   
     8     4    60 1   
     9     5     6 1   
    10     5    61 1   
    11     5    62 1   
    12     6     7 ar  
    13     6     8 ar  
    14     7     9 ar  
    15     7    63 1   
    16     8    10 ar  
    17     9    11 ar  
    18     9    64 1   
    19    10    11 ar  
    20    10    65 1   
    21    11    66 1   
    22    12    13 1   
    23    12    67 1   
    24    13    14 1   
    25    13    16 1   
    26    13    68 1   
    27    14    15 2   
    28    14    19 1   
    29    16    17 1   
    30    16    18 1   
    31    16    69 1   
    32    17    70 1   
    33    17    71 1   
    34    17    72 1   
    35    18    73 1   
    36    18    74 1   
    37    18    75 1   
    38    19    20 1   
    39    19    76 1   
    40    20    21 1   
    41    20    28 1   
    42    20    77 1   
    43    21    22 1   
    44    21    78 1   
    45    21    79 1   
    46    22    23 ar  
    47    22    27 ar  
    48    23    24 ar  
    49    23    80 1   
    50    24    25 ar  
    51    24    81 1   
    52    25    26 ar  
    53    25    82 1   
    54    26    27 ar  
    55    26    83 1   
    56    27    84 1   
    57    28    29 1   
    58    28    31 1   
    59    28    85 1   
    60    29    86 1   
    61    30    31 1   
    62    30    87 1   
    63    31    33 1   
    64    31    88 1   
    65    32    33 1   
    66    32    43 1   
    67    32    89 1   
    68    33    34 1   
    69    33    90 1   
    70    34    35 1   
    71    34    91 1   
    72    34    92 1   
    73    35    36 ar  
    74    35    40 ar  
    75    36    37 ar  
    76    36    93 1   
    77    37    38 ar  
    78    37    94 1   
    79    38    39 ar  
    80    38    95 1   
    81    39    40 ar  
    82    39    96 1   
    83    40    97 1   
    84    41    42 1   
    85    41    98 1   
    86    41   116 1   
    87    42    43 1   
    88    42    45 1   
    89    42    99 1   
    90    43    44 2   
    91    45    46 1   
    92    45    47 1   
    93    45   100 1   
    94    46   101 1   
    95    46   102 1   
    96    46   103 1   
    97    47   104 1   
    98    47   105 1   
    99    47   106 1   
   100    48   116 2   
   101    49    50 1   
   102    49    51 1   
   103    49   116 1   
   104    50   107 1   
   105    50   108 1   
   106    50   109 1   
   107    51    52 1   
   108    51   110 1   
   109    51   111 1   
   110    52    53 ar  
   111    52    54 ar  
   112    53    55 ar  
   113    53   112 1   
   114    54    56 ar  
   115    55    57 ar  
   116    55   113 1   
   117    56    57 ar  
   118    56   114 1   
   119    57   115 1   
@<TRIPOS>SUBSTRUCTURE
     1 A79         1 TEMP              0 ****  ****    0 ROOT
