@<TRIPOS>MOLECULE
A79
  116   119     1     0     0
SMALL
No Charge or Current Charge


@<TRIPOS>ATOM
      1 C1           0.1150     1.2570    -6.8350 c          1 A79       0.659100
      2 O2          -0.8880     1.6730    -7.3920 o          1 A79      -0.651600
      3 N3           1.4060     1.7120    -7.1690 n          1 A79      -0.400300
      4 C4           1.5760     2.7000    -8.2570 c3         1 A79       0.104300
      5 C5           2.6310     1.2620    -6.4440 c3         1 A79       0.047200
      6 C6           2.9830    -0.2210    -6.5990 ca         1 A79       0.305300
      7 C7           3.0530    -1.0630    -5.4700 ca         1 A79      -0.155000
      8 N8           3.2000    -0.6730    -7.8580 nb         1 A79      -0.660000
      9 C9           3.3520    -2.4240    -5.6450 ca         1 A79      -0.068500
     10 C10          3.4880    -1.9850    -8.0230 ca         1 A79       0.341400
     11 C11          3.5700    -2.8900    -6.9510 ca         1 A79      -0.162500
     12 N21          0.0570     0.3270    -5.8290 ns         1 A79      -0.514400
     13 C22         -1.1730    -0.2310    -5.2310 c3         1 A79       0.053200
     14 C23         -0.9630    -0.3350    -3.6950 c          1 A79       0.592600
     15 O24          0.1370    -0.5260    -3.1860 o          1 A79      -0.614600
     16 C25         -1.5720    -1.6000    -5.8630 c3         1 A79      -0.067200
     17 C26         -2.1260    -1.4440    -7.2980 c3         1 A79      -0.088600
     18 C27         -0.4350    -2.6530    -5.8230 c3         1 A79      -0.088600
     19 N37         -2.0990    -0.1440    -2.9350 ns         1 A79      -0.488900
     20 C38         -2.0940     0.1370    -1.4920 c3         1 A79       0.068200
     21 C39         -2.0730     1.6760    -1.2470 c3         1 A79      -0.054100
     22 C40         -0.9780     2.3850    -2.0430 ca         1 A79      -0.088800
     23 C41         -1.2770     3.0010    -3.2760 ca         1 A79      -0.101000
     24 C42         -0.2580     3.5970    -4.0380 ca         1 A79      -0.107250
     25 C43          1.0670     3.5870    -3.5710 ca         1 A79      -0.115000
     26 C44          1.3700     2.9840    -2.3380 ca         1 A79      -0.107250
     27 C45          0.3510     2.3840    -1.5770 ca         1 A79      -0.101000
     28 C46         -3.2510    -0.6330    -0.7800 c3         1 A79       0.130800
     29 O47         -4.5270    -0.2660    -1.3510 oh         1 A79      -0.646500
     30 O48         -4.4060    -1.2310     1.2840 oh         1 A79      -0.646500
     31 C49         -3.3090    -0.4520     0.7710 c3         1 A79       0.130800
     32 N50         -2.1520    -0.5740     2.9680 ns         1 A79      -0.488900
     33 C51         -1.9930    -0.8180     1.5280 c3         1 A79       0.068200
     34 C52         -1.4840    -2.2710     1.2890 c3         1 A79      -0.054100
     35 C53         -0.2530    -2.6140     2.1270 ca         1 A79      -0.088800
     36 C54         -0.3910    -3.3060     3.3470 ca         1 A79      -0.101000
     37 C55          0.7370    -3.5720     4.1440 ca         1 A79      -0.107250
     38 C56          2.0100    -3.1540     3.7220 ca         1 A79      -0.115000
     39 C57          2.1540    -2.4700     2.5040 ca         1 A79      -0.107250
     40 C58          1.0260    -2.2000     1.7090 ca         1 A79      -0.101000
     41 N81         -0.1370    -0.4330     5.9730 ns         1 A79      -0.514400
     42 C82         -1.4340    -0.1910     5.3110 c3         1 A79       0.053200
     43 C83         -1.1770    -0.0380     3.7850 c          1 A79       0.592600
     44 O84         -0.1590     0.4730     3.3320 o          1 A79      -0.614600
     45 C85         -2.1750     1.0310     5.9380 c3         1 A79      -0.067200
     46 C86         -1.3540     2.3450     5.8830 c3         1 A79      -0.088600
     47 C87         -3.5870     1.2330     5.3390 c3         1 A79      -0.088600
     48 O98         -0.8920    -1.4650     7.8450 o          1 A79      -0.651600
     49 N99          1.3830    -1.1660     7.6120 n          1 A79      -0.400300
     50 C2           1.6800    -1.7960     8.9180 c3         1 A79       0.104300
     51 C3           2.5330    -0.6540     6.8090 c3         1 A79       0.047200
     52 C8           2.5850     0.8670     6.6380 ca         1 A79       0.305300
     53 C12          2.5340     1.4470     5.3540 ca         1 A79      -0.155000
     54 N10          2.6600     1.6100     7.7690 nb         1 A79      -0.660000
     55 C13          2.5490     2.8450     5.2300 ca         1 A79      -0.068500
     56 C14          2.6760     2.9580     7.6460 ca         1 A79       0.341400
     57 C15          2.6200     3.6120     6.4040 ca         1 A79      -0.162500
     58 H12          1.2170     3.6810    -7.9200 h1         1 A79       0.042200
     59 H13          2.6310     2.7840    -8.5450 h1         1 A79       0.042200
     60 H14          0.9990     2.3880    -9.1370 h1         1 A79       0.042200
     61 H15          3.4930     1.8500    -6.7840 h1         1 A79       0.062700
     62 H16          2.5050     1.4940    -5.3780 h1         1 A79       0.062700
     63 H17          2.8780    -0.6680    -4.4730 ha         1 A79       0.125000
     64 H18          3.4090    -3.0980    -4.7920 ha         1 A79       0.121500
     65 H19          3.6550    -2.3210    -9.0460 h4         1 A79       0.021100
     66 H20          3.8030    -3.9340    -7.1370 ha         1 A79       0.125000
     67 H28          0.9350     0.0680    -5.4040 hn         1 A79       0.332500
     68 H29         -1.9930     0.4840    -5.3850 h1         1 A79       0.080200
     69 H30         -2.3970    -1.9990    -5.2580 hc         1 A79       0.061200
     70 H31         -2.5120    -2.4000    -7.6700 hc         1 A79       0.037867
     71 H32         -2.9470    -0.7170    -7.3220 hc         1 A79       0.037867
     72 H33         -1.3440    -1.1030    -7.9870 hc         1 A79       0.037867
     73 H34          0.4100    -2.3460    -6.4500 hc         1 A79       0.037867
     74 H35         -0.0690    -2.8050    -4.8010 hc         1 A79       0.037867
     75 H36         -0.7950    -3.6210    -6.1940 hc         1 A79       0.037867
     76 H59         -2.9740    -0.0340    -3.4350 hn         1 A79       0.324000
     77 H60         -1.1530    -0.2610    -1.0880 h1         1 A79       0.093700
     78 H61         -3.0490     2.1030    -1.5070 hc         1 A79       0.053950
     79 H62         -1.9290     1.8750    -0.1790 hc         1 A79       0.053950
     80 H63         -2.2970     3.0020    -3.6540 ha         1 A79       0.118500
     81 H64         -0.4940     4.0600    -4.9940 ha         1 A79       0.115250
     82 H65          1.8560     4.0460    -4.1620 ha         1 A79       0.108000
     83 H66          2.3950     2.9750    -1.9760 ha         1 A79       0.115250
     84 H67          0.5980     1.9050    -0.6330 ha         1 A79       0.118500
     85 H68         -3.0790    -1.7010    -0.9740 h1         1 A79       0.082200
     86 H69         -4.6140     0.7110    -1.2960 ho         1 A79       0.446500
     87 H70         -5.0910    -1.2150     0.5770 ho         1 A79       0.446500
     88 H71         -3.5040     0.6110     0.9730 h1         1 A79       0.082200
     89 H72         -2.9740    -0.9570     3.4170 hn         1 A79       0.324000
     90 H73         -1.2100    -0.1390     1.1650 h1         1 A79       0.093700
     91 H74         -2.2920    -2.9780     1.5120 hc         1 A79       0.053950
     92 H75         -1.2470    -2.4070     0.2280 hc         1 A79       0.053950
     93 H76         -1.3740    -3.6250     3.6870 ha         1 A79       0.118500
     94 H77          0.6230    -4.0990     5.0880 ha         1 A79       0.115250
     95 H78          2.8820    -3.3600     4.3380 ha         1 A79       0.108000
     96 H79          3.1390    -2.1430     2.1770 ha         1 A79       0.115250
     97 H80          1.1460    -1.6560     0.7740 ha         1 A79       0.118500
     98 H88          0.6950    -0.1350     5.4840 hn         1 A79       0.332500
     99 H89         -2.0540    -1.0880     5.4450 h1         1 A79       0.080200
    100 H90         -2.3240     0.7990     7.0010 hc         1 A79       0.061200
    101 H91         -1.8950     3.1570     6.3830 hc         1 A79       0.037867
    102 H92         -0.3890     2.2310     6.3900 hc         1 A79       0.037867
    103 H93         -1.1660     2.6520     4.8480 hc         1 A79       0.037867
    104 H94         -3.5330     1.5460     4.2900 hc         1 A79       0.037867
    105 H95         -4.1700     0.3060     5.3950 hc         1 A79       0.037867
    106 H96         -4.1330     2.0060     5.8940 hc         1 A79       0.037867
    107 H1           1.4400    -2.8660     8.8730 h1         1 A79       0.042200
    108 H10          2.7400    -1.6790     9.1770 h1         1 A79       0.042200
    109 H11          1.0750    -1.3240     9.7030 h1         1 A79       0.042200
    110 H2           3.4750    -0.9740     7.2730 h1         1 A79       0.062700
    111 H3           2.5040    -1.1290     5.8200 h1         1 A79       0.062700
    112 H4           2.4790     0.8230     4.4660 ha         1 A79       0.125000
    113 H5           2.5050     3.3210     4.2520 ha         1 A79       0.121500
    114 H6           2.7350     3.5290     8.5720 h4         1 A79       0.021100
    115 H7           2.6340     4.6970     6.3590 ha         1 A79       0.125000
    116 C97          0.0460    -1.0450     7.1850 c          1 A79       0.659100
@<TRIPOS>BOND
     1     1     2 2   
     2     1     3 1   
     3     1    12 1   
     4     3     4 1   
     5     3     5 1   
     6     4    58 1   
     7     4    59 1   
     8     4    60 1   
     9     5     6 1   
    10     5    61 1   
    11     5    62 1   
    12     6     7 ar  
    13     6     8 ar  
    14     7     9 ar  
    15     7    63 1   
    16     8    10 ar  
    17     9    11 ar  
    18     9    64 1   
    19    10    11 ar  
    20    10    65 1   
    21    11    66 1   
    22    12    13 1   
    23    12    67 1   
    24    13    14 1   
    25    13    16 1   
    26    13    68 1   
    27    14    15 2   
    28    14    19 1   
    29    16    17 1   
    30    16    18 1   
    31    16    69 1   
    32    17    70 1   
    33    17    71 1   
    34    17    72 1   
    35    18    73 1   
    36    18    74 1   
    37    18    75 1   
    38    19    20 1   
    39    19    76 1   
    40    20    21 1   
    41    20    28 1   
    42    20    77 1   
    43    21    22 1   
    44    21    78 1   
    45    21    79 1   
    46    22    23 ar  
    47    22    27 ar  
    48    23    24 ar  
    49    23    80 1   
    50    24    25 ar  
    51    24    81 1   
    52    25    26 ar  
    53    25    82 1   
    54    26    27 ar  
    55    26    83 1   
    56    27    84 1   
    57    28    29 1   
    58    28    31 1   
    59    28    85 1   
    60    29    86 1   
    61    30    31 1   
    62    30    87 1   
    63    31    33 1   
    64    31    88 1   
    65    32    33 1   
    66    32    43 1   
    67    32    89 1   
    68    33    34 1   
    69    33    90 1   
    70    34    35 1   
    71    34    91 1   
    72    34    92 1   
    73    35    36 ar  
    74    35    40 ar  
    75    36    37 ar  
    76    36    93 1   
    77    37    38 ar  
    78    37    94 1   
    79    38    39 ar  
    80    38    95 1   
    81    39    40 ar  
    82    39    96 1   
    83    40    97 1   
    84    41    42 1   
    85    41    98 1   
    86    41   116 1   
    87    42    43 1   
    88    42    45 1   
    89    42    99 1   
    90    43    44 2   
    91    45    46 1   
    92    45    47 1   
    93    45   100 1   
    94    46   101 1   
    95    46   102 1   
    96    46   103 1   
    97    47   104 1   
    98    47   105 1   
    99    47   106 1   
   100    48   116 2   
   101    49    50 1   
   102    49    51 1   
   103    49   116 1   
   104    50   107 1   
   105    50   108 1   
   106    50   109 1   
   107    51    52 1   
   108    51   110 1   
   109    51   111 1   
   110    52    53 ar  
   111    52    54 ar  
   112    53    55 ar  
   113    53   112 1   
   114    54    56 ar  
   115    55    57 ar  
   116    55   113 1   
   117    56    57 ar  
   118    56   114 1   
   119    57   115 1   
@<TRIPOS>SUBSTRUCTURE
     1 A79         1 TEMP              0 ****  ****    0 ROOT
