@<TRIPOS>MOLECULE
A7A
   57    61     1     0     0
SMALL
No Charge or Current Charge


@<TRIPOS>ATOM
      1 O            3.3540     1.1020     2.4520 oh         1 A7A      -0.646000
      2 C19          2.7280     0.4240     1.3450 c3         1 A7A       0.216300
      3 C20          3.5130     0.7240     0.0700 ca         1 A7A      -0.078300
      4 C24          4.3350    -0.2520    -0.5230 ca         1 A7A      -0.146500
      5 C23          5.0460     0.0600    -1.6950 ca         1 A7A       0.331400
      6 N4           4.9780     1.2700    -2.2980 nb         1 A7A      -0.661000
      7 C22          4.1890     2.2110    -1.7300 ca         1 A7A       0.331400
      8 C21          3.4470     1.9840    -0.5580 ca         1 A7A      -0.146500
      9 C8           1.2470     0.7860     1.2550 cc         1 A7A       0.375800
     10 N1           0.6200     1.5970     2.1380 nd         1 A7A      -0.601100
     11 C9          -0.7020     1.6040     1.7030 ca         1 A7A       0.071400
     12 C14         -0.8800     0.8230     0.5970 ca         1 A7A      -0.069200
     13 N            0.3470     0.2990     0.2980 na         1 A7A      -0.162600
     14 C7           0.6230    -0.5550    -0.8770 c3         1 A7A       0.120900
     15 C6           1.1220    -1.9710    -0.5560 ca         1 A7A      -0.113300
     16 C4           1.8530    -2.7100    -1.5190 ca         1 A7A      -0.076300
     17 C5           2.1320    -2.1490    -2.9120 c3         1 A7A      -0.051800
     18 C3           2.3240    -3.9980    -1.1980 ca         1 A7A      -0.104000
     19 C2           2.0660    -4.5610     0.0610 ca         1 A7A      -0.102000
     20 C25          0.8480    -2.5620     0.7000 ca         1 A7A      -0.096000
     21 C1           1.3230    -3.8470     1.0140 ca         1 A7A      -0.070300
     22 C            1.0250    -4.4610     2.3740 c3         1 A7A      -0.048800
     23 C13         -2.1330     0.6590    -0.0160 ca         1 A7A      -0.110000
     24 C12         -3.2470     1.3390     0.5330 ca         1 A7A       0.038000
     25 C11         -3.0550     2.1560     1.6810 ca         1 A7A      -0.130000
     26 C10         -1.7810     2.2910     2.2720 ca         1 A7A      -0.048000
     27 C15         -4.5680     1.1850    -0.0910 cc         1 A7A      -0.162000
     28 C18         -5.6950     1.8020     0.3700 cd         1 A7A      -0.153000
     29 N3          -6.7040     1.3850    -0.5060 na         1 A7A       0.134800
     30 C17         -8.1220     1.7680    -0.4460 c3         1 A7A       0.072900
     31 N2          -6.2410     0.5280    -1.4970 nd         1 A7A      -0.524800
     32 C16         -4.9580     0.4340    -1.2130 cc         1 A7A       0.253900
     33 H1           2.6180     1.5890     2.8940 ho         1 A7A       0.484000
     34 H2           2.7700    -0.6600     1.5200 h1         1 A7A       0.081700
     35 H3           4.4290    -1.2440    -0.0890 ha         1 A7A       0.129500
     36 H4           5.6860    -0.6830    -2.1690 h4         1 A7A       0.020100
     37 H5           4.1510     3.1780    -2.2310 h4         1 A7A       0.020100
     38 H6           2.8350     2.7830    -0.1480 ha         1 A7A       0.129500
     39 H7          -0.2780    -0.6390    -1.4940 h1         1 A7A       0.072200
     40 H8           1.3690    -0.0320    -1.4860 h1         1 A7A       0.072200
     41 H9           2.7930    -1.2770    -2.8670 hc         1 A7A       0.043367
     42 H10          2.6150    -2.8900    -3.5600 hc         1 A7A       0.043367
     43 H11          1.2030    -1.8430    -3.4080 hc         1 A7A       0.043367
     44 H12          2.8900    -4.5710    -1.9290 ha         1 A7A       0.114000
     45 H13          2.4360    -5.5590     0.2890 ha         1 A7A       0.115000
     46 H14          0.2610    -2.0290     1.4440 ha         1 A7A       0.124000
     47 H15          0.0370    -4.9370     2.3780 hc         1 A7A       0.045700
     48 H16          1.7660    -5.2220     2.6430 hc         1 A7A       0.045700
     49 H17          1.0340    -3.7000     3.1640 hc         1 A7A       0.045700
     50 H18         -2.2490     0.0250    -0.8890 ha         1 A7A       0.122000
     51 H19         -3.8870     2.6910     2.1270 ha         1 A7A       0.111000
     52 H20         -1.6370     2.9120     3.1520 ha         1 A7A       0.128000
     53 H21         -5.8760     2.4720     1.2010 h4         1 A7A       0.155000
     54 H22         -8.4070     2.2630    -1.3820 h1         1 A7A       0.057367
     55 H23         -8.7380     0.8730    -0.3040 h1         1 A7A       0.057367
     56 H24         -8.2850     2.4570     0.3910 h1         1 A7A       0.057367
     57 H25         -4.3340    -0.1880    -1.8410 h4         1 A7A       0.038100
@<TRIPOS>BOND
     1     1     2 1   
     2     1    33 1   
     3     2     3 1   
     4     2     9 1   
     5     2    34 1   
     6     3     4 ar  
     7     3     8 ar  
     8     4     5 ar  
     9     4    35 1   
    10     5     6 ar  
    11     5    36 1   
    12     6     7 ar  
    13     7     8 ar  
    14     7    37 1   
    15     8    38 1   
    16     9    10 2   
    17     9    13 1   
    18    10    11 1   
    19    11    12 ar  
    20    11    26 ar  
    21    12    13 1   
    22    12    23 ar  
    23    13    14 1   
    24    14    15 1   
    25    14    39 1   
    26    14    40 1   
    27    15    16 ar  
    28    15    20 ar  
    29    16    17 1   
    30    16    18 ar  
    31    17    41 1   
    32    17    42 1   
    33    17    43 1   
    34    18    19 ar  
    35    18    44 1   
    36    19    21 ar  
    37    19    45 1   
    38    20    21 ar  
    39    20    46 1   
    40    21    22 1   
    41    22    47 1   
    42    22    48 1   
    43    22    49 1   
    44    23    24 ar  
    45    23    50 1   
    46    24    25 ar  
    47    24    27 1   
    48    25    26 ar  
    49    25    51 1   
    50    26    52 1   
    51    27    28 2   
    52    27    32 1   
    53    28    29 1   
    54    28    53 1   
    55    29    30 1   
    56    29    31 1   
    57    30    54 1   
    58    30    55 1   
    59    30    56 1   
    60    31    32 2   
    61    32    57 1   
@<TRIPOS>SUBSTRUCTURE
     1 A7A         1 TEMP              0 ****  ****    0 ROOT
