@<TRIPOS>MOLECULE
A7A
   57    61     1     0     0
SMALL
abcg2


@<TRIPOS>ATOM
      1 O            3.4600     0.8730     2.3490 oh         1 A7A      -0.646000
      2 C19          2.9300     0.4460     1.1290 c3         1 A7A       0.216300
      3 C20          3.6040     1.1540    -0.0310 ca         1 A7A      -0.078300
      4 C24          4.3320     0.4510    -0.9780 ca         1 A7A      -0.146500
      5 C23          4.9430     1.1490    -2.0120 ca         1 A7A       0.331400
      6 N4           4.8730     2.4660    -2.1420 nb         1 A7A      -0.661000
      7 C22          4.1800     3.1380    -1.2270 ca         1 A7A       0.331400
      8 C21          3.5330     2.5370    -0.1610 ca         1 A7A      -0.146500
      9 C8           1.4490     0.7020     1.1030 cc         1 A7A       0.375800
     10 N1           0.8710     1.4610     1.9870 nd         1 A7A      -0.601100
     11 C9          -0.4600     1.4690     1.6420 ca         1 A7A       0.071400
     12 C14         -0.6570     0.6750     0.5040 ca         1 A7A      -0.069200
     13 N            0.5930     0.2040     0.1710 na         1 A7A      -0.162600
     14 C7           0.9080    -0.6950    -0.9110 c3         1 A7A       0.120900
     15 C6           1.0460    -2.1420    -0.5020 ca         1 A7A      -0.113300
     16 C4           1.5020    -3.0600    -1.4570 ca         1 A7A      -0.076300
     17 C5           1.8390    -2.6280    -2.8550 c3         1 A7A      -0.051800
     18 C3           1.6380    -4.3890    -1.0770 ca         1 A7A      -0.104000
     19 C2           1.3330    -4.8100     0.2110 ca         1 A7A      -0.102000
     20 C25          0.7360    -2.5720     0.7810 ca         1 A7A      -0.096000
     21 C1           0.8720    -3.9070     1.1600 ca         1 A7A      -0.070300
     22 C            0.5080    -4.3460     2.5480 c3         1 A7A      -0.048800
     23 C13         -1.9020     0.4840    -0.0760 ca         1 A7A      -0.110000
     24 C12         -2.9890     1.1210     0.5130 ca         1 A7A       0.038000
     25 C11         -2.7930     1.9240     1.6590 ca         1 A7A      -0.130000
     26 C10         -1.5500     2.1080     2.2280 ca         1 A7A      -0.048000
     27 C15         -4.3290     0.9590    -0.0460 cc         1 A7A      -0.162000
     28 C18         -5.4540     1.7260     0.1950 cd         1 A7A      -0.153000
     29 N3          -6.4520     1.2050    -0.5350 na         1 A7A       0.134800
     30 C17         -7.8150     1.6740    -0.6160 c3         1 A7A       0.072900
     31 N2          -6.0660     0.1470    -1.2400 nd         1 A7A      -0.524800
     32 C16         -4.7880    -0.0140    -0.9580 cc         1 A7A       0.253900
     33 H1           2.7990     1.4370     2.7770 ho         1 A7A       0.484000
     34 H2           3.1070    -0.6330     1.0210 h1         1 A7A       0.081700
     35 H3           4.4350    -0.6260    -0.9190 ha         1 A7A       0.129500
     36 H4           5.5120     0.6130    -2.7630 h4         1 A7A       0.020100
     37 H5           4.1340     4.2140    -1.3490 h4         1 A7A       0.020100
     38 H6           2.9810     3.1450     0.5440 ha         1 A7A       0.129500
     39 H7           0.1310    -0.5870    -1.6710 h1         1 A7A       0.072200
     40 H8           1.8250    -0.3480    -1.3910 h1         1 A7A       0.072200
     41 H9           2.6530    -1.8990    -2.8760 hc         1 A7A       0.043367
     42 H10          2.1530    -3.4780    -3.4610 hc         1 A7A       0.043367
     43 H11          0.9870    -2.1640    -3.3570 hc         1 A7A       0.043367
     44 H12          1.9940    -5.1120    -1.8020 ha         1 A7A       0.114000
     45 H13          1.4580    -5.8540     0.4750 ha         1 A7A       0.115000
     46 H14          0.3770    -1.8630     1.5180 ha         1 A7A       0.124000
     47 H15         -0.5710    -4.4870     2.6460 hc         1 A7A       0.045700
     48 H16          0.9840    -5.2910     2.8070 hc         1 A7A       0.045700
     49 H17          0.8020    -3.6050     3.2920 hc         1 A7A       0.045700
     50 H18         -2.0230    -0.1330    -0.9580 ha         1 A7A       0.122000
     51 H19         -3.6490     2.4040     2.1160 ha         1 A7A       0.111000
     52 H20         -1.4280     2.7270     3.1080 ha         1 A7A       0.128000
     53 H21         -5.6020     2.5950     0.8150 h4         1 A7A       0.155000
     54 H22         -8.0500     1.9850    -1.6310 h1         1 A7A       0.057367
     55 H23         -8.5020     0.8860    -0.3140 h1         1 A7A       0.057367
     56 H24         -7.9360     2.5220     0.0520 h1         1 A7A       0.057367
     57 H25         -4.2340    -0.8270    -1.4030 h4         1 A7A       0.038100
@<TRIPOS>BOND
     1     1     2 1   
     2     1    33 1   
     3     2     3 1   
     4     2     9 1   
     5     2    34 1   
     6     3     4 ar  
     7     3     8 ar  
     8     4     5 ar  
     9     4    35 1   
    10     5     6 ar  
    11     5    36 1   
    12     6     7 ar  
    13     7     8 ar  
    14     7    37 1   
    15     8    38 1   
    16     9    10 2   
    17     9    13 1   
    18    10    11 1   
    19    11    12 ar  
    20    11    26 ar  
    21    12    13 1   
    22    12    23 ar  
    23    13    14 1   
    24    14    15 1   
    25    14    39 1   
    26    14    40 1   
    27    15    16 ar  
    28    15    20 ar  
    29    16    17 1   
    30    16    18 ar  
    31    17    41 1   
    32    17    42 1   
    33    17    43 1   
    34    18    19 ar  
    35    18    44 1   
    36    19    21 ar  
    37    19    45 1   
    38    20    21 ar  
    39    20    46 1   
    40    21    22 1   
    41    22    47 1   
    42    22    48 1   
    43    22    49 1   
    44    23    24 ar  
    45    23    50 1   
    46    24    25 ar  
    47    24    27 1   
    48    25    26 ar  
    49    25    51 1   
    50    26    52 1   
    51    27    28 2   
    52    27    32 1   
    53    28    29 1   
    54    28    53 1   
    55    29    30 1   
    56    29    31 1   
    57    30    54 1   
    58    30    55 1   
    59    30    56 1   
    60    31    32 2   
    61    32    57 1   
@<TRIPOS>SUBSTRUCTURE
     1 A7A         1 TEMP              0 ****  ****    0 ROOT
