@<TRIPOS>MOLECULE
A7B
   25    26     1     0     0
SMALL
bcc


@<TRIPOS>ATOM
      1 C1          -0.0700    -2.2730    -0.0280 ca         1 A7B      -0.108000
      2 C2           0.5390    -1.0070     0.0030 ca         1 A7B      -0.102800
      3 C3          -0.2660     0.1350     0.0060 ca         1 A7B       0.078600
      4 C4          -1.6720     0.0180    -0.0210 ca         1 A7B       0.091100
      5 C5          -2.2460    -1.2360    -0.0510 ca         1 A7B      -0.174000
      6 C6          -1.4390    -2.3800    -0.0540 ca         1 A7B      -0.128000
      7 C7           1.9730    -0.8200     0.0300 cc         1 A7B       0.018600
      8 C8           2.4820     0.4320     0.0580 cd         1 A7B      -0.245200
      9 C9           1.6540     1.6220     0.0620 c          1 A7B       0.702700
     10 N10          0.3090     1.3790     0.0360 ns         1 A7B      -0.430100
     11 O11         -2.3410     1.1850    -0.0150 os         1 A7B      -0.330900
     12 O12          2.0920     2.7680     0.0860 o          1 A7B      -0.633500
     13 C13          2.8730    -2.0140     0.0270 c3         1 A7B      -0.061900
     14 C14         -3.7560     1.1510    -0.0450 c3         1 A7B       0.129700
     15 H1           0.5430    -3.1640    -0.0300 ha         1 A7B       0.137000
     16 H5          -3.3210    -1.3510    -0.0710 ha         1 A7B       0.138000
     17 H6          -1.9080    -3.3540    -0.0760 ha         1 A7B       0.135000
     18 H8           3.5530     0.5880     0.0790 ha         1 A7B       0.156000
     19 HN10        -0.2990     2.1870     0.0360 hn         1 A7B       0.342500
     20 H13          2.7110    -2.6280    -0.8600 hc         1 A7B       0.050700
     21 H13A         3.9190    -1.7150     0.0460 hc         1 A7B       0.050700
     22 H13B         2.6860    -2.6510     0.8930 hc         1 A7B       0.050700
     23 H14         -4.1280     0.6650    -0.9510 h1         1 A7B       0.044033
     24 H14A        -4.1660     0.6370     0.8280 h1         1 A7B       0.044033
     25 H14B        -4.0900     2.1850    -0.0360 h1         1 A7B       0.044033
@<TRIPOS>BOND
     1     1     2 ar  
     2     1     6 ar  
     3     1    15 1   
     4     2     3 ar  
     5     2     7 1   
     6     3     4 ar  
     7     3    10 1   
     8     4     5 ar  
     9     4    11 1   
    10     5     6 ar  
    11     5    16 1   
    12     6    17 1   
    13     7     8 2   
    14     7    13 1   
    15     8     9 1   
    16     8    18 1   
    17     9    10 1   
    18     9    12 2   
    19    10    19 1   
    20    11    14 1   
    21    13    20 1   
    22    13    21 1   
    23    13    22 1   
    24    14    23 1   
    25    14    24 1   
    26    14    25 1   
@<TRIPOS>SUBSTRUCTURE
     1 A7B         1 TEMP              0 ****  ****    0 ROOT
