@<TRIPOS>MOLECULE
A7B
   25    26     1     0     0
SMALL
No Charge or Current Charge


@<TRIPOS>ATOM
      1 C1          -0.0620    -2.2740    -0.0280 ca         1 A7B      -0.090000
      2 C2           0.5560    -1.0040     0.0020 ca         1 A7B      -0.102800
      3 C3          -0.2670     0.1410     0.0040 ca         1 A7B       0.078600
      4 C4          -1.6740     0.0370    -0.0230 ca         1 A7B       0.091100
      5 C5          -2.2710    -1.2410    -0.0520 ca         1 A7B      -0.156000
      6 C6          -1.4630    -2.3890    -0.0550 ca         1 A7B      -0.110000
      7 C7           2.0280    -0.8720     0.0300 cc         1 A7B       0.018600
      8 C8           2.5150     0.4270     0.0590 cd         1 A7B      -0.295200
      9 C9           1.6880     1.6480     0.0620 c          1 A7B       0.560200
     10 N10          0.3500     1.3990     0.0340 ns         1 A7B      -0.363100
     11 O11         -2.4220     1.2020    -0.0190 os         1 A7B      -0.354100
     12 O12          2.1430     2.7800     0.0870 o          1 A7B      -0.558000
     13 C13          2.9540    -2.0630     0.0290 c3         1 A7B      -0.061900
     14 C14         -3.8620     1.1930    -0.0450 c3         1 A7B       0.152900
     15 H1           0.5330    -3.1840    -0.0310 ha         1 A7B       0.119000
     16 H5          -3.3510    -1.3630    -0.0740 ha         1 A7B       0.120000
     17 H6          -1.9230    -3.3750    -0.0780 ha         1 A7B       0.117000
     18 H8           3.5790     0.6270     0.0810 ha         1 A7B       0.206000
     19 HN10        -0.2610     2.2060     0.0350 hn         1 A7B       0.342500
     20 H13          2.8070    -2.6710    -0.8710 hc         1 A7B       0.050700
     21 H13A         4.0060    -1.7560     0.0530 hc         1 A7B       0.050700
     22 H13B         2.7750    -2.6980     0.9050 hc         1 A7B       0.050700
     23 H14         -4.2330     0.6980    -0.9510 h1         1 A7B       0.044033
     24 H14A        -4.2650     0.6710     0.8330 h1         1 A7B       0.044033
     25 H14B        -4.2490     2.2190    -0.0360 h1         1 A7B       0.044033
@<TRIPOS>BOND
     1     1     2 ar  
     2     1     6 ar  
     3     1    15 1   
     4     2     3 ar  
     5     2     7 1   
     6     3     4 ar  
     7     3    10 1   
     8     4     5 ar  
     9     4    11 1   
    10     5     6 ar  
    11     5    16 1   
    12     6    17 1   
    13     7     8 2   
    14     7    13 1   
    15     8     9 1   
    16     8    18 1   
    17     9    10 1   
    18     9    12 2   
    19    10    19 1   
    20    11    14 1   
    21    13    20 1   
    22    13    21 1   
    23    13    22 1   
    24    14    23 1   
    25    14    24 1   
    26    14    25 1   
@<TRIPOS>SUBSTRUCTURE
     1 A7B         1 TEMP              0 ****  ****    0 ROOT
