@<TRIPOS>MOLECULE
A7D
   46    48     1     0     0
SMALL
bcc


@<TRIPOS>ATOM
      1 N1          -5.6860     1.6090    -0.2060 nb         1 A7D      -0.829000
      2 C2          -5.6290     0.3450     0.2060 ca         1 A7D       0.707900
      3 N3          -4.5610    -0.3850     0.4770 nb         1 A7D      -0.751000
      4 C4          -3.4350     0.3050     0.2930 ca         1 A7D       0.446800
      5 C5          -3.3350     1.6230    -0.1240 ca         1 A7D      -0.230200
      6 C6          -4.5470     2.2880    -0.3860 ca         1 A7D       0.780200
      7 N6          -4.5990     3.5540    -0.8010 nv         1 A7D      -0.955500
      8 N7          -2.0250     2.0150    -0.1830 nc         1 A7D      -0.559100
      9 C8          -1.3540     0.9630     0.1860 cd         1 A7D       0.412700
     10 N9          -2.1500    -0.1130     0.4750 na         1 A7D      -0.287000
     11 OAC          5.9240     1.5650    -1.4330 oh         1 A7D      -0.578800
     12 OAD         -0.5920    -3.7330    -1.5540 oh         1 A7D      -0.584800
     13 OAE         -2.1510    -3.7330     0.7140 oh         1 A7D      -0.578800
     14 CAH          7.1230     1.6670     0.6790 c3         1 A7D       0.107400
     15 CAI          3.9050    -0.2360    -0.2980 c3         1 A7D       0.015700
     16 CAJ          4.8860     0.5690     0.5390 c3         1 A7D      -0.103400
     17 OAO         -0.3540    -1.4420     1.1120 os         1 A7D      -0.384600
     18 SAP          2.4510    -0.6500     0.7090 ss         1 A7D      -0.314200
     19 CAT          6.1730     0.8910    -0.2180 c3         1 A7D       0.143100
     20 CAU         -0.8570    -2.5100    -0.9270 c5         1 A7D       0.069100
     21 CAV         -2.0870    -2.5370    -0.0110 c5         1 A7D       0.081100
     22 CAW          0.2700    -2.1650     0.0500 c5         1 A7D       0.152100
     23 CAX         -1.7380    -1.4250     0.9740 c5         1 A7D       0.269800
     24 H2          -6.5880    -0.1460     0.3350 h5         1 A7D       0.046100
     25 HN6         -5.4840     3.9980    -0.9750 hn         1 A7D       0.451800
     26 HN6A        -3.7600     4.0860    -0.9510 hn         1 A7D       0.451800
     27 H8          -0.2800     0.9220     0.2830 h5         1 A7D       0.083800
     28 HOAB         8.9160     2.3890     0.5680 ho         1 A7D       0.404000
     29 HOAD        -1.1260    -3.7940    -2.3530 ho         1 A7D       0.420000
     30 HOAE        -1.8880    -4.4490     0.1230 ho         1 A7D       0.426000
     31 HAH          7.2580     1.1070     1.6130 h1         1 A7D       0.020700
     32 HAHA         6.6530     2.6240     0.9510 h1         1 A7D       0.020700
     33 HAI          3.5820     0.3340    -1.1690 h1         1 A7D       0.065200
     34 HAIA         4.3700    -1.1590    -0.6520 h1         1 A7D       0.065200
     35 HAJ          4.4120     1.4980     0.8740 hc         1 A7D       0.057200
     36 HAJA         5.1460     0.0110     1.4430 hc         1 A7D       0.057200
     37 HAT          6.6550    -0.0510    -0.5010 h1         1 A7D       0.086700
     38 HAU         -0.9770    -1.7040    -1.6610 h1         1 A7D       0.058700
     39 HAV         -3.0190    -2.3360    -0.5520 h1         1 A7D       0.086700
     40 HAW          0.6990    -3.0830     0.4670 h1         1 A7D       0.096700
     41 HAX         -2.2120    -1.5770     1.9470 h2         1 A7D       0.125700
     42 CAK          1.3740    -1.3390    -0.5780 c3         1 A7D      -0.004300
     43 HOAC         5.4820     2.3980    -1.2320 ho         1 A7D       0.398000
     44 OAB          8.3440     1.8600     0.0050 oh         1 A7D      -0.582800
     45 HAK          0.9640    -0.5320    -1.1890 h1         1 A7D       0.068700
     46 HAKA         1.9600    -1.9890    -1.2310 h1         1 A7D       0.068700
@<TRIPOS>BOND
     1     1     2 ar  
     2     1     6 ar  
     3     2     3 ar  
     4     2    24 1   
     5     3     4 ar  
     6     4     5 ar  
     7     4    10 1   
     8     5     6 ar  
     9     5     8 1   
    10     6     7 1   
    11     7    25 1   
    12     7    26 1   
    13     8     9 2   
    14     9    10 1   
    15     9    27 1   
    16    10    23 1   
    17    11    19 1   
    18    11    43 1   
    19    12    20 1   
    20    12    29 1   
    21    13    21 1   
    22    13    30 1   
    23    14    19 1   
    24    14    31 1   
    25    14    32 1   
    26    14    44 1   
    27    15    16 1   
    28    15    18 1   
    29    15    33 1   
    30    15    34 1   
    31    16    19 1   
    32    16    35 1   
    33    16    36 1   
    34    17    22 1   
    35    17    23 1   
    36    18    42 1   
    37    19    37 1   
    38    20    21 1   
    39    20    22 1   
    40    20    38 1   
    41    21    23 1   
    42    21    39 1   
    43    22    40 1   
    44    22    42 1   
    45    23    41 1   
    46    28    44 1   
    47    42    45 1   
    48    42    46 1   
@<TRIPOS>SUBSTRUCTURE
     1 A7D         1 TEMP              0 ****  ****    0 ROOT
