@<TRIPOS>MOLECULE
A7D
   46    48     1     0     0
SMALL
No Charge or Current Charge


@<TRIPOS>ATOM
      1 N1          -6.3840     1.3350    -0.1760 nb         1 A7D      -0.303000
      2 C2          -6.1420     0.1240     0.3770 ca         1 A7D       0.181900
      3 N3          -4.9280    -0.4310     0.6100 nb         1 A7D      -0.225000
      4 C4          -3.8620     0.3100     0.2500 ca         1 A7D       0.118500
      5 C5          -3.9970     1.5510    -0.3190 ca         1 A7D      -0.099600
      6 C6          -5.3020     2.0470    -0.5270 ca         1 A7D       0.451900
      7 N6          -5.5430     3.2660    -1.0790 nv         1 A7D      -1.065900
      8 N7          -2.7710     2.1420    -0.6030 nc         1 A7D      -0.559100
      9 C8          -1.9030     1.2020    -0.1810 cd         1 A7D       0.412700
     10 N9          -2.5200     0.0510     0.3470 na         1 A7D      -0.316300
     11 OAC          6.1040     2.0310    -0.9300 oh         1 A7D      -0.641000
     12 OAD         -0.4930    -3.5660    -1.5530 oh         1 A7D      -0.707000
     13 OAE         -1.9800    -3.6650     0.7630 oh         1 A7D      -0.701000
     14 CAH          7.7240     1.2740     0.7110 c3         1 A7D       0.130600
     15 CAI          4.1350    -0.1320    -0.2150 c3         1 A7D       0.063600
     16 CAJ          5.3200     0.3470     0.6480 c3         1 A7D      -0.103400
     17 OAO         -0.4400    -0.9010     0.9590 os         1 A7D      -0.431000
     18 SAP          2.7930    -0.8130     0.8590 ss         1 A7D      -0.410000
     19 CAT          6.5140     0.8800    -0.1780 c3         1 A7D       0.166300
     20 CAU         -0.8020    -2.3150    -0.9110 c5         1 A7D       0.092300
     21 CAV         -2.0470    -2.4410     0.0090 c5         1 A7D       0.104300
     22 CAW          0.2540    -1.8790     0.1490 c5         1 A7D       0.175300
     23 CAX         -1.8690    -1.1460     0.8820 c5         1 A7D       0.322300
     24 H2          -7.0110    -0.4650     0.6650 h5         1 A7D       0.046100
     25 HN6         -6.4560     3.6850    -0.9280 hn         1 A7D       0.507000
     26 HN6A        -4.7530     3.9050    -1.1450 hn         1 A7D       0.507000
     27 H8          -0.8230     1.2870    -0.2310 h5         1 A7D       0.083800
     28 HOAB         9.5300     2.0250     0.5010 ho         1 A7D       0.443000
     29 HOAD        -0.8340    -3.5210    -2.4790 ho         1 A7D       0.519000
     30 HOAE        -1.4680    -4.2780     0.1770 ho         1 A7D       0.525000
     31 HAH          8.0910     0.3800     1.2330 h1         1 A7D       0.020700
     32 HAHA         7.3990     1.9950     1.4730 h1         1 A7D       0.020700
     33 HAI          3.7350     0.7050    -0.8020 h1         1 A7D       0.065200
     34 HAIA         4.4720    -0.9140    -0.9090 h1         1 A7D       0.065200
     35 HAJ          4.9730     1.1280     1.3360 hc         1 A7D       0.057200
     36 HAJA         5.6650    -0.4910     1.2670 hc         1 A7D       0.057200
     37 HAT          6.8470     0.0820    -0.8580 h1         1 A7D       0.086700
     38 HAU         -0.9450    -1.5180    -1.6560 h1         1 A7D       0.058700
     39 HAV         -2.9790    -2.3980    -0.5730 h1         1 A7D       0.086700
     40 HAW          0.5300    -2.7290     0.7900 h1         1 A7D       0.096700
     41 HAX         -2.2890    -1.2980     1.8850 h2         1 A7D       0.125700
     42 CAK          1.5500    -1.2740    -0.4380 c3         1 A7D       0.043600
     43 HOAC         6.9420     2.5080    -1.1270 ho         1 A7D       0.437000
     44 OAB          8.7700     1.8410    -0.0970 oh         1 A7D      -0.645000
     45 HAK          1.2960    -0.3820    -1.0250 h1         1 A7D       0.068700
     46 HAKA         2.0070    -2.0070    -1.1160 h1         1 A7D       0.068700
@<TRIPOS>BOND
     1     1     2 ar  
     2     1     6 ar  
     3     2     3 ar  
     4     2    24 1   
     5     3     4 ar  
     6     4     5 ar  
     7     4    10 1   
     8     5     6 ar  
     9     5     8 1   
    10     6     7 1   
    11     7    25 1   
    12     7    26 1   
    13     8     9 2   
    14     9    10 1   
    15     9    27 1   
    16    10    23 1   
    17    11    19 1   
    18    11    43 1   
    19    12    20 1   
    20    12    29 1   
    21    13    21 1   
    22    13    30 1   
    23    14    19 1   
    24    14    31 1   
    25    14    32 1   
    26    14    44 1   
    27    15    16 1   
    28    15    18 1   
    29    15    33 1   
    30    15    34 1   
    31    16    19 1   
    32    16    35 1   
    33    16    36 1   
    34    17    22 1   
    35    17    23 1   
    36    18    42 1   
    37    19    37 1   
    38    20    21 1   
    39    20    22 1   
    40    20    38 1   
    41    21    23 1   
    42    21    39 1   
    43    22    40 1   
    44    22    42 1   
    45    23    41 1   
    46    28    44 1   
    47    42    45 1   
    48    42    46 1   
@<TRIPOS>SUBSTRUCTURE
     1 A7D         1 TEMP              0 ****  ****    0 ROOT
