@<TRIPOS>MOLECULE
A7G
   58    62     1     0     0
SMALL
bcc


@<TRIPOS>ATOM
      1 F2           4.8010    -0.9700    -2.5430 f          1 A7G      -0.247800
      2 C16          4.4740    -0.0700    -1.5830 c3         1 A7G       0.609700
      3 F1           3.2250     0.3460    -1.8770 f          1 A7G      -0.247800
      4 O            4.5290    -0.6230    -0.3450 os         1 A7G      -0.382900
      5 C15          3.5300    -1.4810     0.0740 ca         1 A7G       0.127100
      6 C14          3.3070    -2.6970    -0.5520 ca         1 A7G      -0.143000
      7 C13          2.3360    -3.5540    -0.0530 ca         1 A7G      -0.103000
      8 C12          1.6040    -3.2010     1.0710 ca         1 A7G      -0.130000
      9 C11          1.8510    -1.9860     1.6920 ca         1 A7G      -0.108000
     10 C10          2.8090    -1.1050     1.2040 ca         1 A7G      -0.113300
     11 C9           3.0590     0.1990     1.9210 c3         1 A7G       0.108600
     12 N2           2.8300     1.3630     1.0930 na         1 A7G      -0.149300
     13 C2           3.7350     2.3230     0.7330 cc         1 A7G       0.419800
     14 C1           5.1370     2.3360     1.2240 c3         1 A7G      -0.117400
     15 C8           1.6390     1.6950     0.4970 ca         1 A7G      -0.068200
     16 C3           1.9060     2.8720    -0.2160 ca         1 A7G       0.073400
     17 N1           3.2190     3.2340    -0.0470 nd         1 A7G      -0.581100
     18 C7           0.3800     1.1150     0.5410 ca         1 A7G      -0.123000
     19 C6          -0.6400     1.7280    -0.1810 cp         1 A7G       0.000000
     20 C5          -0.3710     2.9030    -0.9120 ca         1 A7G      -0.146000
     21 C4           0.8830     3.4850    -0.9340 ca         1 A7G      -0.067000
     22 C17         -1.9940     1.1520    -0.1800 cp         1 A7G      -0.210300
     23 C21         -2.2130    -0.2200    -0.1520 ca         1 A7G       0.463200
     24 N3          -3.4040    -0.7960    -0.1400 nb         1 A7G      -0.755000
     25 C20         -4.5060    -0.0440    -0.1650 ca         1 A7G       0.688200
     26 C19         -4.4000     1.3630    -0.1810 ca         1 A7G      -0.316300
     27 C18         -3.1510     1.9390    -0.1940 ca         1 A7G      -0.045000
     28 N4          -5.7080    -0.6980    -0.1970 nh         1 A7G      -0.776300
     29 C25         -5.7790    -2.0940     0.2100 c6         1 A7G       0.218300
     30 C24         -6.9460    -2.7900    -0.4630 c6         1 A7G       0.144300
     31 N5          -8.1730    -2.0750    -0.1740 n7         1 A7G      -0.803200
     32 C23         -8.0960    -0.7340    -0.7150 c6         1 A7G       0.144300
     33 C22         -6.9570     0.0270    -0.0590 c6         1 A7G       0.218300
     34 H1           5.1710     0.7650    -1.6250 h3         1 A7G       0.107700
     35 H2           3.8930    -2.9980    -1.4090 ha         1 A7G       0.155000
     36 H3           2.1610    -4.5030    -0.5420 ha         1 A7G       0.139000
     37 H4           0.8510    -3.8680     1.4680 ha         1 A7G       0.141000
     38 H5           1.2880    -1.7110     2.5760 ha         1 A7G       0.135000
     39 H6           2.4060     0.2500     2.7940 h1         1 A7G       0.065700
     40 H7           4.0810     0.2430     2.2970 h1         1 A7G       0.065700
     41 H8           5.6630     1.4080     1.0000 hc         1 A7G       0.059367
     42 H9           5.6730     3.1550     0.7530 hc         1 A7G       0.059367
     43 H10          5.1770     2.4800     2.3050 hc         1 A7G       0.059367
     44 H11          0.1830     0.2310     1.1340 ha         1 A7G       0.136000
     45 H12         -1.1670     3.3570    -1.4890 ha         1 A7G       0.131000
     46 H13          1.0630     4.3890    -1.5010 ha         1 A7G       0.145000
     47 H14         -1.3680    -0.9020    -0.1550 h4         1 A7G       0.017100
     48 H15         -5.2670     2.0050    -0.1650 ha         1 A7G       0.138000
     49 H16         -3.0740     3.0190    -0.1890 ha         1 A7G       0.135000
     50 H17         -4.8520    -2.5920    -0.0570 h1         1 A7G       0.053950
     51 H18         -5.8930    -2.1640     1.3000 h1         1 A7G       0.053950
     52 H19         -6.7420    -2.8630    -1.5430 h1         1 A7G       0.039450
     53 H20         -7.0160    -3.8080    -0.0750 h1         1 A7G       0.039450
     54 H21         -8.9590    -2.5640    -0.5820 hn         1 A7G       0.357800
     55 H23         -7.9390    -0.7250    -1.8050 h1         1 A7G       0.039450
     56 H24         -9.0280    -0.2030    -0.5130 h1         1 A7G       0.039450
     57 H25         -7.1890     0.2060     0.9990 h1         1 A7G       0.053950
     58 H26         -6.8840     0.9960    -0.5470 h1         1 A7G       0.053950
@<TRIPOS>BOND
     1     1     2 1   
     2     2     3 1   
     3     2     4 1   
     4     2    34 1   
     5     4     5 1   
     6     5     6 ar  
     7     5    10 ar  
     8     6     7 ar  
     9     6    35 1   
    10     7     8 ar  
    11     7    36 1   
    12     8     9 ar  
    13     8    37 1   
    14     9    10 ar  
    15     9    38 1   
    16    10    11 1   
    17    11    12 1   
    18    11    39 1   
    19    11    40 1   
    20    12    13 1   
    21    12    15 1   
    22    13    14 1   
    23    13    17 2   
    24    14    41 1   
    25    14    42 1   
    26    14    43 1   
    27    15    16 ar  
    28    15    18 ar  
    29    16    17 1   
    30    16    21 ar  
    31    18    19 ar  
    32    18    44 1   
    33    19    20 ar  
    34    19    22 1   
    35    20    21 ar  
    36    20    45 1   
    37    21    46 1   
    38    22    23 ar  
    39    22    27 ar  
    40    23    24 ar  
    41    23    47 1   
    42    24    25 ar  
    43    25    26 ar  
    44    25    28 1   
    45    26    27 ar  
    46    26    48 1   
    47    27    49 1   
    48    28    29 1   
    49    28    33 1   
    50    29    30 1   
    51    29    50 1   
    52    29    51 1   
    53    30    31 1   
    54    30    52 1   
    55    30    53 1   
    56    31    32 1   
    57    31    54 1   
    58    32    33 1   
    59    32    55 1   
    60    32    56 1   
    61    33    57 1   
    62    33    58 1   
@<TRIPOS>SUBSTRUCTURE
     1 A7G         1 TEMP              0 ****  ****    0 ROOT
