@<TRIPOS>MOLECULE
A7G
   58    62     1     0     0
SMALL
No Charge or Current Charge


@<TRIPOS>ATOM
      1 F2           6.0130    -1.6320    -1.7590 f          1 A7G      -0.126500
      2 C16          5.2820    -0.4940    -1.7130 c3         1 A7G       0.390300
      3 F1           4.5080    -0.4650    -2.8240 f          1 A7G      -0.126500
      4 O            4.4830    -0.4280    -0.5130 os         1 A7G      -0.406100
      5 C15          3.4890    -1.3340    -0.1760 ca         1 A7G       0.127100
      6 C14          3.2020    -2.4780    -0.9590 ca         1 A7G      -0.125000
      7 C13          2.1970    -3.3760    -0.5640 ca         1 A7G      -0.085000
      8 C12          1.4740    -3.1490     0.6150 ca         1 A7G      -0.112000
      9 C11          1.7510    -2.0180     1.3990 ca         1 A7G      -0.090000
     10 C10          2.7480    -1.1000     1.0080 ca         1 A7G      -0.113300
     11 C9           3.0070     0.1300     1.8820 c3         1 A7G       0.137900
     12 N2           2.8140     1.4230     1.1920 na         1 A7G      -0.178600
     13 C2           3.7580     2.4100     0.8890 cc         1 A7G       0.419800
     14 C1           5.1940     2.3870     1.3290 c3         1 A7G      -0.117400
     15 C8           1.6290     1.8200     0.6430 ca         1 A7G      -0.068200
     16 C3           1.8740     3.0140     0.0260 ca         1 A7G       0.073400
     17 N1           3.2020     3.4080     0.1720 nd         1 A7G      -0.581100
     18 C7           0.3630     1.2170     0.6480 ca         1 A7G      -0.105000
     19 C6          -0.7070     1.8660    -0.0250 cp         1 A7G       0.000000
     20 C5          -0.4390     3.1110    -0.6690 ca         1 A7G      -0.128000
     21 C4           0.8480     3.6920    -0.6440 ca         1 A7G      -0.049000
     22 C17         -2.0730     1.2540    -0.0600 cp         1 A7G      -0.145000
     23 C21         -2.2550    -0.1530    -0.0640 ca         1 A7G       0.397900
     24 N3          -3.4600    -0.7640    -0.0950 nb         1 A7G      -0.755000
     25 C20         -4.5580     0.0060    -0.1220 ca         1 A7G       0.622900
     26 C19         -4.4930     1.4120    -0.1200 ca         1 A7G      -0.233000
     27 C18         -3.2430     2.0460    -0.0890 ca         1 A7G      -0.027000
     28 N4          -5.7720    -0.7060    -0.1620 nh         1 A7G      -0.776300
     29 C25         -5.9710    -1.9290     0.6910 c6         1 A7G       0.218300
     30 C24         -7.1080    -2.8660     0.1610 c6         1 A7G       0.144300
     31 N5          -8.3880    -2.1480    -0.0940 n7         1 A7G      -0.858400
     32 C23         -8.1680    -0.9950    -1.0120 c6         1 A7G       0.144300
     33 C22         -7.0570    -0.0120    -0.5100 c6         1 A7G       0.218300
     34 H1           5.9700     0.3570    -1.7530 h3         1 A7G       0.107700
     35 H2           3.7440    -2.6910    -1.8730 ha         1 A7G       0.137000
     36 H3           1.9820    -4.2530    -1.1720 ha         1 A7G       0.121000
     37 H4           0.6990    -3.8480     0.9230 ha         1 A7G       0.123000
     38 H5           1.1820    -1.8540     2.3120 ha         1 A7G       0.117000
     39 H6           2.3440     0.1110     2.7560 h1         1 A7G       0.065700
     40 H7           4.0350     0.0780     2.2600 h1         1 A7G       0.065700
     41 H8           5.7100     1.5010     0.9440 hc         1 A7G       0.059367
     42 H9           5.7310     3.2730     0.9690 hc         1 A7G       0.059367
     43 H10          5.2610     2.3730     2.4230 hc         1 A7G       0.059367
     44 H11          0.2030     0.2780     1.1680 ha         1 A7G       0.118000
     45 H12         -1.2320     3.6270    -1.2040 ha         1 A7G       0.113000
     46 H13          1.0420     4.6400    -1.1380 ha         1 A7G       0.127000
     47 H14         -1.3940    -0.8200    -0.0550 h4         1 A7G       0.017100
     48 H15         -5.3940     2.0150    -0.1280 ha         1 A7G       0.120000
     49 H16         -3.1860     3.1320    -0.0700 ha         1 A7G       0.117000
     50 H17         -5.0530    -2.5300     0.7560 h1         1 A7G       0.053950
     51 H18         -6.2230    -1.6210     1.7170 h1         1 A7G       0.053950
     52 H19         -6.7670    -3.3340    -0.7740 h1         1 A7G       0.039450
     53 H20         -7.2780    -3.6760     0.8860 h1         1 A7G       0.039450
     54 H21         -9.0590    -2.7990    -0.5250 hn         1 A7G       0.413000
     55 H23         -7.8760    -1.3770    -2.0020 h1         1 A7G       0.039450
     56 H24         -9.1100    -0.4430    -1.1420 h1         1 A7G       0.039450
     57 H25         -7.4370     0.5270     0.3700 h1         1 A7G       0.053950
     58 H26         -6.8890     0.7310    -1.3040 h1         1 A7G       0.053950
@<TRIPOS>BOND
     1     1     2 1   
     2     2     3 1   
     3     2     4 1   
     4     2    34 1   
     5     4     5 1   
     6     5     6 ar  
     7     5    10 ar  
     8     6     7 ar  
     9     6    35 1   
    10     7     8 ar  
    11     7    36 1   
    12     8     9 ar  
    13     8    37 1   
    14     9    10 ar  
    15     9    38 1   
    16    10    11 1   
    17    11    12 1   
    18    11    39 1   
    19    11    40 1   
    20    12    13 1   
    21    12    15 1   
    22    13    14 1   
    23    13    17 2   
    24    14    41 1   
    25    14    42 1   
    26    14    43 1   
    27    15    16 ar  
    28    15    18 ar  
    29    16    17 1   
    30    16    21 ar  
    31    18    19 ar  
    32    18    44 1   
    33    19    20 ar  
    34    19    22 1   
    35    20    21 ar  
    36    20    45 1   
    37    21    46 1   
    38    22    23 ar  
    39    22    27 ar  
    40    23    24 ar  
    41    23    47 1   
    42    24    25 ar  
    43    25    26 ar  
    44    25    28 1   
    45    26    27 ar  
    46    26    48 1   
    47    27    49 1   
    48    28    29 1   
    49    28    33 1   
    50    29    30 1   
    51    29    50 1   
    52    29    51 1   
    53    30    31 1   
    54    30    52 1   
    55    30    53 1   
    56    31    32 1   
    57    31    54 1   
    58    32    33 1   
    59    32    55 1   
    60    32    56 1   
    61    33    57 1   
    62    33    58 1   
@<TRIPOS>SUBSTRUCTURE
     1 A7G         1 TEMP              0 ****  ****    0 ROOT
