@<TRIPOS>MOLECULE
A7H
   24    25     1     0     0
SMALL
bcc


@<TRIPOS>ATOM
      1 C10          4.5490     0.2440    -0.0480 c3         1 A7H      -0.116400
      2 C9           3.0620     0.2340    -0.0340 cc         1 A7H       0.400200
      3 C8          -0.5890    -0.9150    -0.0490 ca         1 A7H      -0.138000
      4 C7           0.7060    -0.4250    -0.0360 ca         1 A7H      -0.011100
      5 C4          -1.3760     1.3740     0.0920 ca         1 A7H      -0.216000
      6 C5          -0.0750     1.8450     0.1050 ca         1 A7H      -0.033000
      7 C6           0.9840     0.9500     0.0390 ca         1 A7H       0.053400
      8 C3          -1.6390    -0.0030     0.0140 ca         1 A7H       0.159100
      9 C2          -4.0060     0.3240     0.0010 c3         1 A7H       0.143400
     10 C1          -5.2420    -0.5400    -0.0700 c3         1 A7H      -0.095100
     11 O1          -2.8750    -0.5330    -0.0060 os         1 A7H      -0.325900
     12 S1           2.2000    -1.2950    -0.1080 ss         1 A7H      -0.130100
     13 N1           2.3200     1.2780     0.0360 nd         1 A7H      -0.526100
     14 H1           4.9380    -0.2780    -0.9220 hc         1 A7H       0.060367
     15 H2           4.9090     1.2700    -0.0650 hc         1 A7H       0.060367
     16 H3           4.9510    -0.2520     0.8360 hc         1 A7H       0.060367
     17 H4          -0.7930    -1.9760    -0.1080 ha         1 A7H       0.156000
     18 H5          -2.1820     2.0920     0.1420 ha         1 A7H       0.138000
     19 H6           0.1160     2.9080     0.1630 ha         1 A7H       0.148000
     20 H7          -3.9720     1.0080    -0.8530 h1         1 A7H       0.034700
     21 H8          -4.0200     0.9320     0.9120 h1         1 A7H       0.034700
     22 H9          -5.3110    -1.2090     0.7880 hc         1 A7H       0.048033
     23 H10         -6.1280     0.0930    -0.0720 hc         1 A7H       0.048033
     24 H11         -5.2560    -1.1380    -0.9810 hc         1 A7H       0.048033
@<TRIPOS>BOND
     1     1     2 1   
     2     1    14 1   
     3     1    15 1   
     4     1    16 1   
     5     2    12 1   
     6     2    13 2   
     7     3     4 ar  
     8     3     8 ar  
     9     3    17 1   
    10     4     7 ar  
    11     4    12 1   
    12     5     6 ar  
    13     5     8 ar  
    14     5    18 1   
    15     6     7 ar  
    16     6    19 1   
    17     7    13 1   
    18     8    11 1   
    19     9    10 1   
    20     9    11 1   
    21     9    20 1   
    22     9    21 1   
    23    10    22 1   
    24    10    23 1   
    25    10    24 1   
@<TRIPOS>SUBSTRUCTURE
     1 A7H         1 TEMP              0 ****  ****    0 ROOT
