@<TRIPOS>MOLECULE
A7H
   24    25     1     0     0
SMALL
No Charge or Current Charge


@<TRIPOS>ATOM
      1 C10          4.5850     0.2170    -0.0300 c3         1 A7H      -0.116400
      2 C9           3.0850     0.2040    -0.0310 cc         1 A7H       0.400200
      3 C8          -0.5530    -0.8850    -0.1080 ca         1 A7H      -0.120000
      4 C7           0.7580    -0.3870    -0.0710 ca         1 A7H      -0.138000
      5 C4          -1.3710     1.4060     0.0920 ca         1 A7H      -0.198000
      6 C5          -0.0420     1.8780     0.1270 ca         1 A7H      -0.015000
      7 C6           1.0220     0.9630     0.0440 ca         1 A7H       0.053400
      8 C3          -1.6300     0.0180    -0.0260 ca         1 A7H       0.159100
      9 C2          -4.0750     0.3390     0.0110 c3         1 A7H       0.166600
     10 C1          -5.3080    -0.5750    -0.0620 c3         1 A7H      -0.095100
     11 O1          -2.9090    -0.4980    -0.0650 os         1 A7H      -0.349100
     12 S1           2.2230    -1.3480    -0.1580 ss         1 A7H      -0.003200
     13 N1           2.3630     1.3290     0.0700 nd         1 A7H      -0.526100
     14 H1           4.9810    -0.5220    -0.7360 hc         1 A7H       0.060367
     15 H2           4.9730     1.2010    -0.3190 hc         1 A7H       0.060367
     16 H3           4.9710    -0.0220     0.9670 hc         1 A7H       0.060367
     17 H4          -0.7400    -1.9520    -0.1990 ha         1 A7H       0.138000
     18 H5          -2.1790     2.1280     0.1570 ha         1 A7H       0.120000
     19 H6           0.1610     2.9430     0.2180 ha         1 A7H       0.130000
     20 H7          -4.0980     1.0520    -0.8230 h1         1 A7H       0.034700
     21 H8          -4.0910     0.8990     0.9560 h1         1 A7H       0.034700
     22 H9          -5.3110    -1.2880     0.7710 hc         1 A7H       0.048033
     23 H10         -6.2260     0.0220    -0.0070 hc         1 A7H       0.048033
     24 H11         -5.3180    -1.1350    -1.0040 hc         1 A7H       0.048033
@<TRIPOS>BOND
     1     1     2 1   
     2     1    14 1   
     3     1    15 1   
     4     1    16 1   
     5     2    12 1   
     6     2    13 2   
     7     3     4 ar  
     8     3     8 ar  
     9     3    17 1   
    10     4     7 ar  
    11     4    12 1   
    12     5     6 ar  
    13     5     8 ar  
    14     5    18 1   
    15     6     7 ar  
    16     6    19 1   
    17     7    13 1   
    18     8    11 1   
    19     9    10 1   
    20     9    11 1   
    21     9    20 1   
    22     9    21 1   
    23    10    22 1   
    24    10    23 1   
    25    10    24 1   
@<TRIPOS>SUBSTRUCTURE
     1 A7H         1 TEMP              0 ****  ****    0 ROOT
