@<TRIPOS>MOLECULE
A7I
   48    49     1     0     0
SMALL
abcg2


@<TRIPOS>ATOM
      1 C15          3.4350    -0.7490     1.0630 c6         1 A7I      -0.089400
      2 C16          4.1000    -1.8770     0.2890 c6         1 A7I       0.166300
      3 N17          5.4150    -1.5020    -0.2070 n3         1 A7I      -0.717600
      4 C20          6.1020    -2.6230    -0.8590 c3         1 A7I       0.186500
      5 C22          7.4950    -2.2220    -1.3420 c3         1 A7I      -0.092100
      6 C21          6.2500    -3.8160     0.0860 c3         1 A7I      -0.092100
      7 C18          5.2890    -0.3470    -1.0860 c6         1 A7I       0.166300
      8 C19          4.6760     0.8470    -0.3720 c6         1 A7I      -0.089400
      9 C14          3.3160     0.5040     0.2130 c6         1 A7I       0.243500
     10 N13          2.7970     1.6140     1.0160 n7         1 A7I      -0.918300
     11 S12          1.5860     2.5720     0.5060 s6         1 A7I       1.216100
     12 O23          1.5050     3.6900     1.4360 o          1 A7I      -0.530500
     13 O24          1.7960     2.8350    -0.9120 o          1 A7I      -0.530500
     14 C10          0.0690     1.6330     0.6610 c3         1 A7I      -0.384400
     15 C9          -1.1470     2.4890     0.3020 c3         1 A7I       0.141000
     16 N8          -2.3750     1.7430     0.4150 ns         1 A7I      -0.500900
     17 C7          -2.7980     0.9110    -0.5550 c          1 A7I       0.641700
     18 O25         -2.1730     0.7240    -1.5890 o          1 A7I      -0.584100
     19 C3          -4.0860     0.2230    -0.3280 cc         1 A7I      -0.293600
     20 C2          -4.5470    -0.8290    -1.0660 cd         1 A7I      -0.056000
     21 C1          -5.8150    -1.2970    -0.6490 cd         1 A7I      -0.133000
     22 C5          -6.2920    -0.5730     0.4010 cc         1 A7I      -0.015000
     23 CL6         -7.7800    -0.7880     1.2020 cl         1 A7I      -0.131000
     24 S4          -5.2220     0.6730     0.8920 ss         1 A7I       0.246000
     25 H151         2.4500    -1.0780     1.4030 hc         1 A7I       0.057450
     26 H152         4.0300    -0.5270     1.9550 hc         1 A7I       0.057450
     27 H161         4.1880    -2.7270     0.9630 h1         1 A7I       0.036200
     28 H162         3.4370    -2.1970    -0.5360 h1         1 A7I       0.036200
     29 H14          2.6190     0.3000    -0.6060 h1         1 A7I       0.058700
     30 H20          5.5220    -2.9570    -1.7380 h1         1 A7I       0.019700
     31 H181         6.2710    -0.0460    -1.4450 h1         1 A7I       0.036200
     32 H182         4.6890    -0.5920    -1.9820 h1         1 A7I       0.036200
     33 H221         8.0750    -1.7920    -0.5220 hc         1 A7I       0.038700
     34 H222         8.0260    -3.1040    -1.7020 hc         1 A7I       0.038700
     35 H223         7.4830    -1.5080    -2.1630 hc         1 A7I       0.038700
     36 H211         6.7340    -3.5110     1.0160 hc         1 A7I       0.038700
     37 H212         5.3030    -4.2930     0.3350 hc         1 A7I       0.038700
     38 H213         6.8730    -4.5790    -0.3810 hc         1 A7I       0.038700
     39 H191         5.3380     1.1680     0.4380 hc         1 A7I       0.057450
     40 H192         4.5850     1.6810    -1.0710 hc         1 A7I       0.057450
     41 H13          2.8650     1.5270     2.0230 hn         1 A7I       0.497000
     42 H101         0.1520     0.7690    -0.0000 h1         1 A7I       0.097200
     43 H102         0.0130     1.2830     1.6930 h1         1 A7I       0.097200
     44 H91C        -1.2160     3.3400     0.9770 h1         1 A7I       0.074700
     45 H92C        -1.0540     2.8760    -0.7120 h1         1 A7I       0.074700
     46 H8          -2.8260     1.7470     1.3170 hn         1 A7I       0.316500
     47 H2          -3.9880    -1.2630    -1.8830 ha         1 A7I       0.157000
     48 H1          -6.3460    -2.1200    -1.1030 ha         1 A7I       0.152000
@<TRIPOS>BOND
     1     1     2 1   
     2     1     9 1   
     3     1    25 1   
     4     1    26 1   
     5     2     3 1   
     6     2    27 1   
     7     2    28 1   
     8     3     4 1   
     9     3     7 1   
    10     4     5 1   
    11     4     6 1   
    12     4    30 1   
    13     5    33 1   
    14     5    34 1   
    15     5    35 1   
    16     6    36 1   
    17     6    37 1   
    18     6    38 1   
    19     7     8 1   
    20     7    31 1   
    21     7    32 1   
    22     8     9 1   
    23     8    39 1   
    24     8    40 1   
    25     9    10 1   
    26     9    29 1   
    27    10    11 1   
    28    10    41 1   
    29    11    12 2   
    30    11    13 2   
    31    11    14 1   
    32    14    15 1   
    33    14    42 1   
    34    14    43 1   
    35    15    16 1   
    36    15    44 1   
    37    15    45 1   
    38    16    17 1   
    39    16    46 1   
    40    17    18 2   
    41    17    19 1   
    42    19    20 2   
    43    19    24 1   
    44    20    21 1   
    45    20    47 1   
    46    21    22 2   
    47    21    48 1   
    48    22    23 1   
    49    22    24 1   
@<TRIPOS>SUBSTRUCTURE
     1 A7I         1 TEMP              0 ****  ****    0 ROOT
