@<TRIPOS>MOLECULE
A7I
   48    49     1     0     0
SMALL
No Charge or Current Charge


@<TRIPOS>ATOM
      1 C15          3.6250    -0.6260     1.4880 c6         1 A7I      -0.089400
      2 C16          4.1340    -1.8430     0.6830 c6         1 A7I       0.166300
      3 N17          5.3050    -1.5010    -0.1850 n3         1 A7I      -0.717600
      4 C20          5.8830    -2.6870    -0.9010 c3         1 A7I       0.186500
      5 C22          7.1160    -2.3330    -1.7740 c3         1 A7I      -0.092100
      6 C21          6.2720    -3.8480     0.0520 c3         1 A7I      -0.092100
      7 C18          4.9580    -0.3660    -1.0980 c6         1 A7I       0.166300
      8 C19          4.4600     0.8780    -0.3290 c6         1 A7I      -0.089400
      9 C14          3.2390     0.5340     0.5500 c6         1 A7I       0.243500
     10 N13          2.7980     1.6950     1.3500 n7         1 A7I      -0.918300
     11 S12          1.6790     2.7580     0.7190 s6         1 A7I       1.216100
     12 O23          1.5650     3.8440     1.6930 o          1 A7I      -0.530500
     13 O24          2.0770     3.0420    -0.6610 o          1 A7I      -0.530500
     14 C10          0.1800     1.7820     0.7190 c3         1 A7I      -0.384400
     15 C9          -1.0090     2.5910     0.1840 c3         1 A7I       0.141000
     16 N8          -2.2200     1.7760     0.1930 ns         1 A7I      -0.500900
     17 C7          -2.5520     0.8550    -0.7730 c          1 A7I       0.641700
     18 O25         -1.8570     0.6600    -1.7590 o          1 A7I      -0.584100
     19 C3          -3.8130     0.1380    -0.5110 cc         1 A7I      -0.293600
     20 C2          -4.3380    -0.8250    -1.3450 cd         1 A7I      -0.056000
     21 C1          -5.5630    -1.3690    -0.8690 cd         1 A7I      -0.133000
     22 C5          -5.9670    -0.8230     0.3220 cc         1 A7I      -0.015000
     23 Cl6         -7.4090    -1.2460     1.1930 cl         1 A7I      -0.131000
     24 S4          -4.8370     0.3950     0.9020 ss         1 A7I       0.246000
     25 H151         2.7590    -0.9300     2.0920 hc         1 A7I       0.057450
     26 H152         4.4040    -0.3020     2.1900 hc         1 A7I       0.057450
     27 H161         4.3980    -2.6180     1.4150 h1         1 A7I       0.036200
     28 H162         3.3110    -2.2420     0.0720 h1         1 A7I       0.036200
     29 H14          2.4200     0.1820    -0.0970 h1         1 A7I       0.058700
     30 H20          5.1210    -3.0860    -1.5840 h1         1 A7I       0.019700
     31 H181         5.8310    -0.0480    -1.6820 h1         1 A7I       0.036200
     32 H182         4.1840    -0.6790    -1.8150 h1         1 A7I       0.036200
     33 H221         7.8720    -1.8020    -1.1840 hc         1 A7I       0.038700
     34 H222         7.5780    -3.2390    -2.1840 hc         1 A7I       0.038700
     35 H223         6.8370    -1.7100    -2.6310 hc         1 A7I       0.038700
     36 H211         6.9320    -3.4910     0.8520 hc         1 A7I       0.038700
     37 H212         5.3880    -4.3110     0.5050 hc         1 A7I       0.038700
     38 H213         6.7960    -4.6420    -0.4930 hc         1 A7I       0.038700
     39 H191         5.2730     1.2710     0.2970 hc         1 A7I       0.057450
     40 H192         4.2140     1.6660    -1.0500 hc         1 A7I       0.057450
     41 H13          2.2550     1.3500     2.1380 hn         1 A7I       0.497000
     42 H101         0.3600     0.9090     0.0830 h1         1 A7I       0.097200
     43 H102        -0.0030     1.4660     1.7510 h1         1 A7I       0.097200
     44 H91C        -1.1770     3.4790     0.8110 h1         1 A7I       0.074700
     45 H92C        -0.8100     2.9330    -0.8420 h1         1 A7I       0.074700
     46 H8          -2.8590     1.8730     0.9710 hn         1 A7I       0.316500
     47 H2          -3.8680    -1.1400    -2.2730 ha         1 A7I       0.157000
     48 H1          -6.1220    -2.1380    -1.3930 ha         1 A7I       0.152000
@<TRIPOS>BOND
     1     1     2 1   
     2     1     9 1   
     3     1    25 1   
     4     1    26 1   
     5     2     3 1   
     6     2    27 1   
     7     2    28 1   
     8     3     4 1   
     9     3     7 1   
    10     4     5 1   
    11     4     6 1   
    12     4    30 1   
    13     5    33 1   
    14     5    34 1   
    15     5    35 1   
    16     6    36 1   
    17     6    37 1   
    18     6    38 1   
    19     7     8 1   
    20     7    31 1   
    21     7    32 1   
    22     8     9 1   
    23     8    39 1   
    24     8    40 1   
    25     9    10 1   
    26     9    29 1   
    27    10    11 1   
    28    10    41 1   
    29    11    12 2   
    30    11    13 2   
    31    11    14 1   
    32    14    15 1   
    33    14    42 1   
    34    14    43 1   
    35    15    16 1   
    36    15    44 1   
    37    15    45 1   
    38    16    17 1   
    39    16    46 1   
    40    17    18 2   
    41    17    19 1   
    42    19    20 2   
    43    19    24 1   
    44    20    21 1   
    45    20    47 1   
    46    21    22 2   
    47    21    48 1   
    48    22    23 1   
    49    22    24 1   
@<TRIPOS>SUBSTRUCTURE
     1 A7I         1 TEMP              0 ****  ****    0 ROOT
