@<TRIPOS>MOLECULE
A7K
   37    38     1     0     0
SMALL
No Charge or Current Charge


@<TRIPOS>ATOM
      1 C12         -0.6490     0.5590    -1.4720 c6         1 A7K       0.163300
      2 C13         -4.1580    -0.7710    -0.2590 c3         1 A7K       0.170600
      3 C11         -1.9630    -0.2570    -1.4880 c6         1 A7K      -0.075900
      4 C10         -2.8460     0.0640    -0.2510 c6         1 A7K      -0.069700
      5 C9          -2.0140    -0.1430     1.0470 c6         1 A7K      -0.075900
      6 C8          -0.6950     0.6650     1.0070 c6         1 A7K       0.163300
      7 C7           1.8210    -1.6600     1.1660 c3         1 A7K       0.170900
      8 C4           1.5020     0.5230    -0.1640 ca         1 A7K       0.244000
      9 C5           2.3560    -0.4110     0.4820 ca         1 A7K      -0.174300
     10 C6           3.7470    -0.1870     0.4960 ca         1 A7K      -0.063000
     11 C3           2.0630     1.6580    -0.7780 ca         1 A7K      -0.125000
     12 C2           3.4510     1.8740    -0.7590 ca         1 A7K      -0.051000
     13 C1           4.2930     0.9500    -0.1220 ca         1 A7K      -0.099000
     14 N1           0.8700    -2.2950     0.2150 nz         1 A7K      -0.992000
     15 N2           0.0980     0.3210    -0.2050 nh         1 A7K      -0.826400
     16 O1          -5.0500    -0.3820     0.7920 oh         1 A7K      -0.659000
     17 H1          -0.0370     0.2650    -2.3390 h1         1 A7K       0.053950
     18 H2          -0.8840     1.6280    -1.5810 h1         1 A7K       0.053950
     19 H3          -4.6500    -0.6340    -1.2310 h1         1 A7K       0.021200
     20 H4          -3.9010    -1.8350    -0.1650 h1         1 A7K       0.021200
     21 H5          -2.5150    -0.0370    -2.4120 hc         1 A7K       0.052450
     22 H6          -1.7280    -1.3300    -1.5140 hc         1 A7K       0.052450
     23 H7          -3.1490     1.1190    -0.3090 hc         1 A7K       0.076700
     24 H8          -2.5970     0.1640     1.9250 hc         1 A7K       0.052450
     25 H9          -1.7870    -1.2090     1.1820 hc         1 A7K       0.052450
     26 H10         -0.9270     1.7410     1.0120 h1         1 A7K       0.053950
     27 H11         -0.1190     0.4520     1.9200 h1         1 A7K       0.053950
     28 H12          2.6230    -2.3640     1.4140 hx         1 A7K       0.097200
     29 H13          1.2890    -1.3920     2.0860 hx         1 A7K       0.097200
     30 H14          4.4100    -0.8960     0.9880 ha         1 A7K       0.126000
     31 H15          1.4200     2.3830    -1.2670 ha         1 A7K       0.137000
     32 H16          3.8720     2.7570    -1.2360 ha         1 A7K       0.142000
     33 H17          5.3680     1.1150    -0.1060 ha         1 A7K       0.144000
     34 H18          0.2520    -1.5350    -0.1380 hn         1 A7K       0.517333
     35 H19          1.3310    -2.6970    -0.6110 hn         1 A7K       0.517333
     36 H20          0.2770    -3.0260     0.6310 hn         1 A7K       0.517333
     37 H21         -5.8500    -0.9490     0.7130 ho         1 A7K       0.458000
@<TRIPOS>BOND
     1     1     3 1   
     2     1    15 1   
     3     1    17 1   
     4     1    18 1   
     5     2     4 1   
     6     2    16 1   
     7     2    19 1   
     8     2    20 1   
     9     3     4 1   
    10     3    21 1   
    11     3    22 1   
    12     4     5 1   
    13     4    23 1   
    14     5     6 1   
    15     5    24 1   
    16     5    25 1   
    17     6    15 1   
    18     6    26 1   
    19     6    27 1   
    20     7     9 1   
    21     7    14 1   
    22     7    28 1   
    23     7    29 1   
    24     8     9 ar  
    25     8    11 ar  
    26     8    15 1   
    27     9    10 ar  
    28    10    13 ar  
    29    10    30 1   
    30    11    12 ar  
    31    11    31 1   
    32    12    13 ar  
    33    12    32 1   
    34    13    33 1   
    35    14    34 1   
    36    14    35 1   
    37    14    36 1   
    38    16    37 1   
@<TRIPOS>SUBSTRUCTURE
     1 A7K         1 TEMP              0 ****  ****    0 ROOT
