@<TRIPOS>MOLECULE
A7K
   37    38     1     0     0
SMALL
abcg2


@<TRIPOS>ATOM
      1 C12         -0.6460     0.4580    -1.4480 c6         1 A7K       0.163300
      2 C13         -4.1660    -0.5930    -0.2800 c3         1 A7K       0.170600
      3 C11         -2.0100    -0.2120    -1.4770 c6         1 A7K      -0.075900
      4 C10         -2.8410     0.1480    -0.2490 c6         1 A7K      -0.069700
      5 C9          -2.0390    -0.1400     1.0170 c6         1 A7K      -0.075900
      6 C8          -0.6720     0.5210     0.9660 c6         1 A7K       0.163300
      7 C7           1.8600    -1.6590     1.1540 c3         1 A7K       0.170900
      8 C4           1.4450     0.4480    -0.1880 ca         1 A7K       0.244000
      9 C5           2.3340    -0.3930     0.4980 ca         1 A7K      -0.174300
     10 C6           3.6830    -0.0660     0.5560 ca         1 A7K      -0.063000
     11 C3           1.9410     1.5840    -0.8200 ca         1 A7K      -0.125000
     12 C2           3.2920     1.8970    -0.7580 ca         1 A7K      -0.051000
     13 C1           4.1670     1.0780    -0.0620 ca         1 A7K      -0.099000
     14 N1           1.0690    -2.4730     0.1960 nz         1 A7K      -0.992000
     15 N2           0.0680     0.0900    -0.2280 nh         1 A7K      -0.826400
     16 O1          -4.9490    -0.2080     0.8270 oh         1 A7K      -0.659000
     17 H1          -0.0550     0.1390    -2.3070 h1         1 A7K       0.053950
     18 H2          -0.7800     1.5460    -1.5250 h1         1 A7K       0.053950
     19 H3          -4.6760    -0.3680    -1.2270 h1         1 A7K       0.021200
     20 H4          -3.9650    -1.6740    -0.2750 h1         1 A7K       0.021200
     21 H5          -2.5260     0.0950    -2.3890 hc         1 A7K       0.052450
     22 H6          -1.8800    -1.2990    -1.5370 hc         1 A7K       0.052450
     23 H7          -3.0480     1.2250    -0.2880 hc         1 A7K       0.076700
     24 H8          -2.5650     0.2190     1.9020 hc         1 A7K       0.052450
     25 H9          -1.9150    -1.2230     1.1370 hc         1 A7K       0.052450
     26 H10         -0.7830     1.6150     0.9650 h1         1 A7K       0.053950
     27 H11         -0.1010     0.2680     1.8600 h1         1 A7K       0.053950
     28 H12          2.6980    -2.2620     1.4950 hx         1 A7K       0.097200
     29 H13          1.2170    -1.4760     2.0130 hx         1 A7K       0.097200
     30 H14          4.3650    -0.7240     1.0810 ha         1 A7K       0.126000
     31 H15          1.2740     2.2370    -1.3670 ha         1 A7K       0.137000
     32 H16          3.6570     2.7870    -1.2530 ha         1 A7K       0.142000
     33 H17          5.2210     1.3170    -0.0110 ha         1 A7K       0.144000
     34 H18          0.3420    -1.8480    -0.1980 hn         1 A7K       0.517333
     35 H19          1.6420    -2.8280    -0.5690 hn         1 A7K       0.517333
     36 H20          0.6250    -3.2730     0.6440 hn         1 A7K       0.517333
     37 H21         -5.7590    -0.7260     0.8150 ho         1 A7K       0.458000
@<TRIPOS>BOND
     1     1     3 1   
     2     1    15 1   
     3     1    17 1   
     4     1    18 1   
     5     2     4 1   
     6     2    16 1   
     7     2    19 1   
     8     2    20 1   
     9     3     4 1   
    10     3    21 1   
    11     3    22 1   
    12     4     5 1   
    13     4    23 1   
    14     5     6 1   
    15     5    24 1   
    16     5    25 1   
    17     6    15 1   
    18     6    26 1   
    19     6    27 1   
    20     7     9 1   
    21     7    14 1   
    22     7    28 1   
    23     7    29 1   
    24     8     9 ar  
    25     8    11 ar  
    26     8    15 1   
    27     9    10 ar  
    28    10    13 ar  
    29    10    30 1   
    30    11    12 ar  
    31    11    31 1   
    32    12    13 ar  
    33    12    32 1   
    34    13    33 1   
    35    14    34 1   
    36    14    35 1   
    37    14    36 1   
    38    16    37 1   
@<TRIPOS>SUBSTRUCTURE
     1 A7K         1 TEMP              0 ****  ****    0 ROOT
