@<TRIPOS>MOLECULE
A7L
   29    29     1     0     0
SMALL
No Charge or Current Charge


@<TRIPOS>ATOM
      1 C1          56.0040    34.1730   -10.3060 ca         1 A7L       0.103100
      2 C2          56.6810    33.6680    -9.1830 ca         1 A7L      -0.141000
      3 C3          57.1910    32.3440    -9.1770 ca         1 A7L      -0.181900
      4 C4          57.0030    31.5410   -10.3300 ca         1 A7L       0.131100
      5 C5          56.3250    32.0560   -11.4480 ca         1 A7L      -0.113000
      6 C6          57.9160    31.8170    -7.9750 ce         1 A7L       0.407800
      7 C7          60.1900    32.2900    -5.6250 cs         1 A7L       0.488400
      8 C9          63.0520    32.6120    -7.2530 c3         1 A7L      -0.117100
      9 N           58.1140    32.5440    -6.9160 n2         1 A7L      -0.484300
     10 C           55.8260    33.3680   -11.4390 ca         1 A7L      -0.090000
     11 O           57.4650    30.2570   -10.3990 oh         1 A7L      -0.535100
     12 C8          62.1280    33.6310    -6.5620 c3         1 A7L       0.104000
     13 N1          58.8590    32.0230    -5.8630 ns         1 A7L      -0.232900
     14 N2          60.7400    33.1700    -6.5160 ns         1 A7L      -0.421900
     15 O1          55.5170    35.4480   -10.3000 oh         1 A7L      -0.531100
     16 S           61.0230    31.6050    -4.3460 s          1 A7L      -0.655400
     17 H1          56.8110    34.3070    -8.3120 ha         1 A7L       0.124000
     18 H2          56.1850    31.4320   -12.3280 ha         1 A7L       0.136000
     19 H4          58.2950    30.7940    -8.0260 h4         1 A7L      -0.015200
     20 H9          64.0790    32.9920    -7.2860 hc         1 A7L       0.048700
     21 H10         63.0560    31.6580    -6.7120 hc         1 A7L       0.048700
     22 H11         62.7210    32.4250    -8.2820 hc         1 A7L       0.048700
     23 H           55.3020    33.7580   -12.3080 ha         1 A7L       0.136000
     24 H3          57.9050    30.0200    -9.5570 ho         1 A7L       0.465000
     25 H7          62.4820    33.8190    -5.5400 h1         1 A7L       0.067200
     26 H8          62.1630    34.5820    -7.1100 h1         1 A7L       0.067200
     27 H5          58.4260    31.3970    -5.1860 hn         1 A7L       0.348500
     28 H6          60.0960    33.5220    -7.2160 hn         1 A7L       0.331500
     29 H12         55.7280    35.8620    -9.4360 ho         1 A7L       0.464000
@<TRIPOS>BOND
     1     1     2 ar  
     2     1    10 ar  
     3     1    15 1   
     4     2     3 ar  
     5     2    17 1   
     6     3     4 ar  
     7     3     6 1   
     8     4     5 ar  
     9     4    11 1   
    10     5    10 ar  
    11     5    18 1   
    12     6     9 2   
    13     6    19 1   
    14     7    13 1   
    15     7    14 1   
    16     7    16 2   
    17     8    12 1   
    18     8    20 1   
    19     8    21 1   
    20     8    22 1   
    21     9    13 1   
    22    10    23 1   
    23    11    24 1   
    24    12    14 1   
    25    12    25 1   
    26    12    26 1   
    27    13    27 1   
    28    14    28 1   
    29    15    29 1   
@<TRIPOS>SUBSTRUCTURE
     1 A7L         1 TEMP              0 ****  ****    0 ROOT
