@<TRIPOS>MOLECULE
A7L
   29    29     1     0     0
SMALL
bcc


@<TRIPOS>ATOM
      1 C1          56.5920    34.0650   -10.6160 ca         1 A7L       0.103100
      2 C2          57.2940    33.4150    -9.6210 ca         1 A7L      -0.159000
      3 C3          57.0720    32.0600    -9.3330 ca         1 A7L      -0.181900
      4 C4          56.1280    31.3510   -10.0860 ca         1 A7L       0.131100
      5 C5          55.4200    32.0180   -11.0860 ca         1 A7L      -0.131000
      6 C6          57.8120    31.4180    -8.2510 ce         1 A7L       0.407800
      7 C7          60.4640    31.9790    -6.0410 cs         1 A7L       0.622400
      8 C9          63.2060    33.6710    -6.6510 c3         1 A7L      -0.117100
      9 N           58.7850    32.0110    -7.6820 n2         1 A7L      -0.484300
     10 C           55.6410    33.3540   -11.3510 ca         1 A7L      -0.108000
     11 O           55.8260    30.0440    -9.9140 oh         1 A7L      -0.496100
     12 C8          61.9020    33.9730    -5.9320 c3         1 A7L       0.104000
     13 N1          59.4200    31.3900    -6.6810 ns         1 A7L      -0.299900
     14 N2          60.7870    33.2010    -6.4420 ns         1 A7L      -0.488900
     15 O1          56.7720    35.3700   -10.9190 oh         1 A7L      -0.492100
     16 S           61.2300    31.1320    -4.8090 s          1 A7L      -0.655400
     17 H1          58.0250    33.9570    -9.0320 ha         1 A7L       0.142000
     18 H2          54.6890    31.4690   -11.6660 ha         1 A7L       0.154000
     19 H4          57.5080    30.4250    -7.9150 h4         1 A7L      -0.015200
     20 H9          64.0080    34.2910    -6.2490 hc         1 A7L       0.048700
     21 H10         63.4900    32.6270    -6.5230 hc         1 A7L       0.048700
     22 H11         63.1250    33.8790    -7.7180 hc         1 A7L       0.048700
     23 H           55.0780    33.8490   -12.1320 ha         1 A7L       0.154000
     24 H3          56.4970    29.5700    -9.4140 ho         1 A7L       0.426000
     25 H7          61.9990    33.7780    -4.8650 h1         1 A7L       0.067200
     26 H8          61.6380    35.0230    -6.0490 h1         1 A7L       0.067200
     27 H5          59.1540    30.4580    -6.3810 hn         1 A7L       0.348500
     28 H6          60.2670    33.5840    -7.2190 hn         1 A7L       0.331500
     29 H12         57.4540    35.7540   -10.3570 ho         1 A7L       0.425000
@<TRIPOS>BOND
     1     1     2 ar  
     2     1    10 ar  
     3     1    15 1   
     4     2     3 ar  
     5     2    17 1   
     6     3     4 ar  
     7     3     6 1   
     8     4     5 ar  
     9     4    11 1   
    10     5    10 ar  
    11     5    18 1   
    12     6     9 2   
    13     6    19 1   
    14     7    13 1   
    15     7    14 1   
    16     7    16 2   
    17     8    12 1   
    18     8    20 1   
    19     8    21 1   
    20     8    22 1   
    21     9    13 1   
    22    10    23 1   
    23    11    24 1   
    24    12    14 1   
    25    12    25 1   
    26    12    26 1   
    27    13    27 1   
    28    14    28 1   
    29    15    29 1   
@<TRIPOS>SUBSTRUCTURE
     1 A7L         1 TEMP              0 ****  ****    0 ROOT
