@<TRIPOS>MOLECULE
A7M
   38    40     1     0     0
SMALL
abcg2


@<TRIPOS>ATOM
      1 C1           1.5400    -0.2980    -0.5430 ca         1 A7M      -0.113300
      2 C2           2.6710     0.4890    -0.7310 ca         1 A7M      -0.102000
      3 C3           3.8860     0.2000    -0.1170 ca         1 A7M      -0.085300
      4 C4           3.9410    -0.9180     0.7080 ca         1 A7M      -0.098000
      5 C5           2.8220    -1.7170     0.8920 ca         1 A7M      -0.112000
      6 C6           1.6080    -1.4330     0.2750 ca         1 A7M      -0.053300
      7 C7           0.2740     0.0770    -1.2690 c3         1 A7M       0.132900
      8 C9           0.4310    -2.3410     0.4850 c3         1 A7M      -0.053800
      9 N10         -0.8660     0.3000    -0.3940 na         1 A7M      -0.165600
     10 C12         -2.8580     0.2000     0.5480 ca         1 A7M       0.069400
     11 C17         -4.1770    -0.2200     0.7240 ca         1 A7M      -0.048000
     12 C18         -4.6910    -1.1330    -0.1780 ca         1 A7M      -0.138000
     13 C19         -3.9150    -1.6250    -1.2390 ca         1 A7M      -0.095000
     14 C20         -2.6060    -1.2190    -1.4290 ca         1 A7M      -0.118000
     15 O16          0.5810     2.8260     0.1160 oh         1 A7M      -0.657000
     16 C14         -0.9430     1.1210     0.6950 cc         1 A7M       0.420800
     17 C11         -2.0950    -0.3000    -0.5170 ca         1 A7M      -0.080200
     18 N13         -2.1090     1.0870     1.2800 nd         1 A7M      -0.575100
     19 C21          5.0820     1.0840    -0.3180 c3         1 A7M      -0.046800
     20 H1           2.6060     1.3490    -1.3890 ha         1 A7M       0.114000
     21 H2           4.8690    -1.1770     1.2040 ha         1 A7M       0.114000
     22 H3           2.8980    -2.5940     1.5260 ha         1 A7M       0.115000
     23 H4           0.4410     0.9620    -1.8810 h1         1 A7M       0.066700
     24 H5          -0.0050    -0.7260    -1.9540 h1         1 A7M       0.066700
     25 H6          -0.3170    -1.8990     1.1460 hc         1 A7M       0.049033
     26 H7          -0.0740    -2.5810    -0.4520 hc         1 A7M       0.049033
     27 H8           0.7460    -3.2800     0.9370 hc         1 A7M       0.049033
     28 H9          -4.7760     0.1630     1.5400 ha         1 A7M       0.128000
     29 H10         -5.7120    -1.4770    -0.0680 ha         1 A7M       0.113000
     30 H11         -4.3510    -2.3390    -1.9250 ha         1 A7M       0.111000
     31 H12         -2.0190    -1.6070    -2.2510 ha         1 A7M       0.114000
     32 H13          1.4870     3.1030     0.2790 ho         1 A7M       0.448000
     33 H14          1.0090     1.3410     1.5090 h1         1 A7M       0.052700
     34 H15         -0.1770     2.5320     2.0370 h1         1 A7M       0.052700
     35 H16          5.1140     1.8780     0.4310 hc         1 A7M       0.043367
     36 H17          6.0130     0.5230    -0.2340 hc         1 A7M       0.043367
     37 H18          5.0660     1.5640    -1.2960 hc         1 A7M       0.043367
     38 C15          0.1840     1.9750     1.1660 c3         1 A7M       0.144300
@<TRIPOS>BOND
     1     1     2 ar  
     2     1     6 ar  
     3     1     7 1   
     4     2     3 ar  
     5     2    20 1   
     6     3     4 ar  
     7     3    19 1   
     8     4     5 ar  
     9     4    21 1   
    10     5     6 ar  
    11     5    22 1   
    12     6     8 1   
    13     7     9 1   
    14     7    23 1   
    15     7    24 1   
    16     8    25 1   
    17     8    26 1   
    18     8    27 1   
    19     9    16 1   
    20     9    17 1   
    21    10    11 ar  
    22    10    17 ar  
    23    10    18 1   
    24    11    12 ar  
    25    11    28 1   
    26    12    13 ar  
    27    12    29 1   
    28    13    14 ar  
    29    13    30 1   
    30    14    17 ar  
    31    14    31 1   
    32    15    32 1   
    33    15    38 1   
    34    16    18 2   
    35    16    38 1   
    36    19    35 1   
    37    19    36 1   
    38    19    37 1   
    39    33    38 1   
    40    34    38 1   
@<TRIPOS>SUBSTRUCTURE
     1 A7M         1 TEMP              0 ****  ****    0 ROOT
