@<TRIPOS>MOLECULE
A7M
   38    40     1     0     0
SMALL
No Charge or Current Charge


@<TRIPOS>ATOM
      1 C1           1.5420    -0.3740    -0.5900 ca         1 A7M      -0.113300
      2 C2           2.6750     0.4620    -0.6780 ca         1 A7M      -0.102000
      3 C3           3.8810     0.1190    -0.0430 ca         1 A7M      -0.085300
      4 C4           3.9580    -1.0770     0.6890 ca         1 A7M      -0.098000
      5 C5           2.8420    -1.9240     0.7750 ca         1 A7M      -0.112000
      6 C6           1.6310    -1.5880     0.1380 ca         1 A7M      -0.053300
      7 C7           0.2550     0.0660    -1.2940 c3         1 A7M       0.132900
      8 C9           0.4530    -2.5510     0.2520 c3         1 A7M      -0.053800
      9 N10         -0.8700     0.3450    -0.3780 na         1 A7M      -0.165600
     10 C12         -2.8550     0.2850     0.5410 ca         1 A7M       0.069400
     11 C17         -4.1740    -0.1430     0.7560 ca         1 A7M      -0.048000
     12 C18         -4.6880    -1.1730    -0.0600 ca         1 A7M      -0.138000
     13 C19         -3.8860    -1.7530    -1.0710 ca         1 A7M      -0.095000
     14 C20         -2.5630    -1.3080    -1.2710 ca         1 A7M      -0.118000
     15 O16          0.4670     3.2450     0.0080 oh         1 A7M      -0.657000
     16 C14         -0.9520     1.3090     0.6360 cc         1 A7M       0.420800
     17 C11         -2.0840    -0.2830    -0.4360 ca         1 A7M      -0.080200
     18 N13         -2.1690     1.2830     1.2270 nd         1 A7M      -0.575100
     19 C21          5.0870     1.0410    -0.1390 c3         1 A7M      -0.046800
     20 H1           2.6160     1.3930    -1.2380 ha         1 A7M       0.114000
     21 H2           4.8830    -1.3530     1.1890 ha         1 A7M       0.114000
     22 H3           2.9230    -2.8480     1.3420 ha         1 A7M       0.115000
     23 H4           0.4460     0.9780    -1.8740 h1         1 A7M       0.066700
     24 H5          -0.0330    -0.7060    -2.0160 h1         1 A7M       0.066700
     25 H6          -0.3230    -2.1490     0.9150 hc         1 A7M       0.049033
     26 H7           0.0000    -2.7480    -0.7260 hc         1 A7M       0.049033
     27 H8           0.7600    -3.5200     0.6620 hc         1 A7M       0.049033
     28 H9          -4.7830     0.3110     1.5340 ha         1 A7M       0.128000
     29 H10         -5.7080    -1.5220     0.0880 ha         1 A7M       0.113000
     30 H11         -4.2910    -2.5450    -1.6970 ha         1 A7M       0.111000
     31 H12         -1.9470    -1.7530    -2.0480 ha         1 A7M       0.114000
     32 H13          1.1610     3.8390     0.3720 ho         1 A7M       0.448000
     33 H14          1.0650     1.6640     1.2540 h1         1 A7M       0.052700
     34 H15         -0.1170     2.7620     1.9600 h1         1 A7M       0.052700
     35 H16          5.0570     1.8050     0.6460 hc         1 A7M       0.043367
     36 H17          6.0260     0.4860    -0.0320 hc         1 A7M       0.043367
     37 H18          5.1190     1.5560    -1.1070 hc         1 A7M       0.043367
     38 C15          0.1710     2.2600     1.0270 c3         1 A7M       0.144300
@<TRIPOS>BOND
     1     1     2 ar  
     2     1     6 ar  
     3     1     7 1   
     4     2     3 ar  
     5     2    20 1   
     6     3     4 ar  
     7     3    19 1   
     8     4     5 ar  
     9     4    21 1   
    10     5     6 ar  
    11     5    22 1   
    12     6     8 1   
    13     7     9 1   
    14     7    23 1   
    15     7    24 1   
    16     8    25 1   
    17     8    26 1   
    18     8    27 1   
    19     9    16 1   
    20     9    17 1   
    21    10    11 ar  
    22    10    17 ar  
    23    10    18 1   
    24    11    12 ar  
    25    11    28 1   
    26    12    13 ar  
    27    12    29 1   
    28    13    14 ar  
    29    13    30 1   
    30    14    17 ar  
    31    14    31 1   
    32    15    32 1   
    33    15    38 1   
    34    16    18 2   
    35    16    38 1   
    36    19    35 1   
    37    19    36 1   
    38    19    37 1   
    39    33    38 1   
    40    34    38 1   
@<TRIPOS>SUBSTRUCTURE
     1 A7M         1 TEMP              0 ****  ****    0 ROOT
