@<TRIPOS>MOLECULE
A7N
   27    27     1     0     0
SMALL
bcc


@<TRIPOS>ATOM
      1 C10          3.5500     0.0700     1.3240 c3         1 A7N      -0.088100
      2 C9           3.0460     0.1390    -0.1150 c3         1 A7N       0.218800
      3 C8          -0.6080    -0.9530     0.0540 ca         1 A7N      -0.196000
      4 C7           0.7820    -0.9850     0.0300 ca         1 A7N      -0.077500
      5 C4          -0.5320     1.4260    -0.2810 ca         1 A7N      -0.196000
      6 C5           0.8510     1.3720    -0.3030 ca         1 A7N      -0.077500
      7 C6           1.5360     0.1690    -0.1440 ca         1 A7N      -0.127300
      8 C3          -1.2770     0.2600    -0.1000 ca         1 A7N       0.146100
      9 C2          -3.4250    -0.7480     0.1270 c3         1 A7N       0.142400
     10 C1          -4.8720    -0.3160     0.1090 c3         1 A7N      -0.095100
     11 O1          -2.6180     0.4000    -0.0940 os         1 A7N      -0.327900
     12 N1           3.5450    -1.0180    -0.8470 n8         1 A7N      -0.890800
     13 H1           3.2070    -0.8460     1.8080 hc         1 A7N       0.039033
     14 H2           4.6420     0.0850     1.3590 hc         1 A7N       0.039033
     15 H3           3.1880     0.9190     1.9040 hc         1 A7N       0.039033
     16 H4           3.4000     1.0890    -0.5430 h1         1 A7N       0.016700
     17 H5          -1.1480    -1.8800     0.1920 ha         1 A7N       0.138000
     18 H6           1.2840    -1.9370     0.1470 ha         1 A7N       0.136000
     19 H7          -1.0440     2.3720    -0.4100 ha         1 A7N       0.138000
     20 H8           1.4100     2.2890    -0.4520 ha         1 A7N       0.136000
     21 H9          -3.1760    -1.2060     1.0910 h1         1 A7N       0.032700
     22 H10         -3.2420    -1.4980    -0.6500 h1         1 A7N       0.032700
     23 H11         -5.0790     0.4220     0.8850 hc         1 A7N       0.046700
     24 H12         -5.1500     0.1080    -0.8570 hc         1 A7N       0.046700
     25 H13         -5.5100    -1.1800     0.2910 hc         1 A7N       0.046700
     26 H14          3.2990    -0.9340    -1.8250 hn         1 A7N       0.340300
     27 H15          4.5580    -1.0180    -0.8150 hn         1 A7N       0.340300
@<TRIPOS>BOND
     1     1     2 1   
     2     1    13 1   
     3     1    14 1   
     4     1    15 1   
     5     2     7 1   
     6     2    12 1   
     7     2    16 1   
     8     3     4 ar  
     9     3     8 ar  
    10     3    17 1   
    11     4     7 ar  
    12     4    18 1   
    13     5     6 ar  
    14     5     8 ar  
    15     5    19 1   
    16     6     7 ar  
    17     6    20 1   
    18     8    11 1   
    19     9    10 1   
    20     9    11 1   
    21     9    21 1   
    22     9    22 1   
    23    10    23 1   
    24    10    24 1   
    25    10    25 1   
    26    12    26 1   
    27    12    27 1   
@<TRIPOS>SUBSTRUCTURE
     1 A7N         1 TEMP              0 ****  ****    0 ROOT
