@<TRIPOS>MOLECULE
A7O
   72    76     1     0     0
SMALL
No Charge or Current Charge


@<TRIPOS>ATOM
      1 C1          -6.4540    -1.8430    -0.9120 ca         1 A7O      -0.059300
      2 C2          -5.9160    -3.1090    -0.6300 ca         1 A7O      -0.126000
      3 C3          -4.5310    -3.2410    -0.4570 ca         1 A7O       0.327900
      4 C4          -4.1750    -0.9510    -0.8200 ca         1 A7O       0.295500
      5 C5          -5.5650    -0.7560    -1.0050 ca         1 A7O      -0.085000
      6 C6          -7.9510    -1.6460    -1.1060 c3         1 A7O       0.201900
      7 C7          -3.2200     0.2600    -0.9280 c          1 A7O       0.522600
      8 C10         -1.4240     0.9360     0.2820 cy         1 A7O       0.117500
      9 C11         -0.4130     1.4860    -0.7810 cy         1 A7O      -0.059400
     10 C12         -1.1590     0.5960    -1.8340 cy         1 A7O       0.117500
     11 C13          1.0650     1.1580    -0.5440 ca         1 A7O      -0.075300
     12 C14          1.4840    -0.1600    -0.2790 ca         1 A7O      -0.098000
     13 C15          2.8410    -0.4490    -0.0620 ca         1 A7O      -0.174000
     14 O9          -3.7120     1.3640    -1.1820 o          1 A7O      -0.615100
     15 N22         -3.6750    -2.1980    -0.5480 nb         1 A7O      -0.659000
     16 O23         -8.4840    -1.0150     0.0700 os         1 A7O      -0.433000
     17 C32         -9.9020    -0.7650     0.0220 c3         1 A7O       0.123600
     18 C33        -10.3420    -0.0710     1.3400 c3         1 A7O       0.167300
     19 O36         -9.7860     1.2560     1.4400 oh         1 A7O      -0.682000
     20 C34        -11.8850     0.0420     1.4480 c3         1 A7O       0.129600
     21 O35        -12.2430     0.7850     2.6270 oh         1 A7O      -0.641000
     22 N8          -1.8450    -0.1160    -0.7030 nj         1 A7O      -0.405800
     23 C18          2.0220     2.1890    -0.5900 ca         1 A7O      -0.162000
     24 C17          3.3920     1.9110    -0.3730 ca         1 A7O       0.110100
     25 O19          4.3550     2.9080    -0.4140 os         1 A7O      -0.319100
     26 C20          4.0330     4.2850    -0.6760 c3         1 A7O       0.145900
     27 C16          3.8040     0.5830    -0.1080 ca         1 A7O       0.117100
     28 O21          5.1510     0.3350     0.1010 os         1 A7O      -0.321100
     29 C24          5.6590    -0.9810     0.3770 c3         1 A7O       0.209900
     30 C25          7.1690    -0.8890     0.5510 ca         1 A7O      -0.097300
     31 C30          7.7260    -0.6570     1.8230 ca         1 A7O      -0.080500
     32 C29          9.1200    -0.5730     1.9820 ca         1 A7O      -0.114000
     33 C28          9.9800    -0.7170     0.8760 ca         1 A7O      -0.030300
     34 C27          9.4170    -0.9480    -0.3970 ca         1 A7O      -0.114000
     35 C26          8.0230    -1.0320    -0.5580 ca         1 A7O      -0.080500
     36 C31         11.4740    -0.6220     1.0790 cx         1 A7O      -0.089400
     37 C38         12.3890     0.0170     0.0560 cx         1 A7O      -0.121900
     38 C37         12.4520    -1.4720     0.2960 cx         1 A7O      -0.121900
     39 H1          -6.5560    -3.9830    -0.5430 ha         1 A7O       0.126000
     40 H2          -4.0900    -4.2130    -0.2380 h4         1 A7O       0.022100
     41 H3          -5.9550     0.2360    -1.2170 ha         1 A7O       0.149000
     42 H4          -8.1230    -1.0210    -1.9920 h1         1 A7O       0.032700
     43 H5          -8.4340    -2.6170    -1.2770 h1         1 A7O       0.032700
     44 H6          -0.9400     0.5040     1.1650 h1         1 A7O       0.062700
     45 H7          -2.1780     1.6630     0.6090 h1         1 A7O       0.062700
     46 H8          -0.5680     2.5540    -0.9720 hc         1 A7O       0.066700
     47 H9          -1.7840     1.1560    -2.5400 h1         1 A7O       0.062700
     48 H10         -0.4940    -0.0690    -2.3960 h1         1 A7O       0.062700
     49 H11          0.7570    -0.9690    -0.2390 ha         1 A7O       0.120000
     50 H12          3.1230    -1.4780     0.1390 ha         1 A7O       0.119000
     51 H13        -10.1580    -0.1250    -0.8330 h1         1 A7O       0.023200
     52 H14        -10.4490    -1.7110    -0.0850 h1         1 A7O       0.023200
     53 H15         -9.9980    -0.6950     2.1780 h1         1 A7O       0.098700
     54 H16        -10.3930     1.7230     2.0630 ho         1 A7O       0.494000
     55 H17        -12.2800     0.5400     0.5520 h1         1 A7O       0.018200
     56 H18        -12.3180    -0.9660     1.4890 h1         1 A7O       0.018200
     57 H19        -13.2250     0.7720     2.6910 ho         1 A7O       0.443000
     58 H20          1.6880     3.2020    -0.7950 ha         1 A7O       0.117000
     59 H21          3.3470     4.6770     0.0860 h1         1 A7O       0.039700
     60 H22          4.9430     4.8970    -0.6610 h1         1 A7O       0.039700
     61 H23          3.5660     4.3950    -1.6630 h1         1 A7O       0.039700
     62 H24          5.2090    -1.3850     1.2930 h1         1 A7O       0.039200
     63 H25          5.4280    -1.6660    -0.4490 h1         1 A7O       0.039200
     64 H26          7.0780    -0.5410     2.6890 ha         1 A7O       0.114500
     65 H27          9.5300    -0.3940     2.9740 ha         1 A7O       0.112000
     66 H28         10.0530    -1.0620    -1.2710 ha         1 A7O       0.112000
     67 H29          7.6060    -1.2070    -1.5470 ha         1 A7O       0.114500
     68 H30         11.7350    -0.4430     2.1200 hc         1 A7O       0.081700
     69 H31         11.9570     0.3640    -0.8790 hc         1 A7O       0.073200
     70 H32         13.2120     0.6250     0.4260 hc         1 A7O       0.073200
     71 H33         13.3170    -1.8630     0.8270 hc         1 A7O       0.073200
     72 H34         12.0620    -2.1300    -0.4760 hc         1 A7O       0.073200
@<TRIPOS>BOND
     1     1     2 ar  
     2     1     5 ar  
     3     1     6 1   
     4     2     3 ar  
     5     2    39 1   
     6     3    15 ar  
     7     3    40 1   
     8     4     5 ar  
     9     4     7 1   
    10     4    15 ar  
    11     5    41 1   
    12     6    16 1   
    13     6    42 1   
    14     6    43 1   
    15     7    14 2   
    16     7    22 1   
    17     8     9 1   
    18     8    22 1   
    19     8    44 1   
    20     8    45 1   
    21     9    10 1   
    22     9    11 1   
    23     9    46 1   
    24    10    22 1   
    25    10    47 1   
    26    10    48 1   
    27    11    12 ar  
    28    11    23 ar  
    29    12    13 ar  
    30    12    49 1   
    31    13    27 ar  
    32    13    50 1   
    33    16    17 1   
    34    17    18 1   
    35    17    51 1   
    36    17    52 1   
    37    18    19 1   
    38    18    20 1   
    39    18    53 1   
    40    19    54 1   
    41    20    21 1   
    42    20    55 1   
    43    20    56 1   
    44    21    57 1   
    45    23    24 ar  
    46    23    58 1   
    47    24    25 1   
    48    24    27 ar  
    49    25    26 1   
    50    26    59 1   
    51    26    60 1   
    52    26    61 1   
    53    27    28 1   
    54    28    29 1   
    55    29    30 1   
    56    29    62 1   
    57    29    63 1   
    58    30    31 ar  
    59    30    35 ar  
    60    31    32 ar  
    61    31    64 1   
    62    32    33 ar  
    63    32    65 1   
    64    33    34 ar  
    65    33    36 1   
    66    34    35 ar  
    67    34    66 1   
    68    35    67 1   
    69    36    37 1   
    70    36    38 1   
    71    36    68 1   
    72    37    38 1   
    73    37    69 1   
    74    37    70 1   
    75    38    71 1   
    76    38    72 1   
@<TRIPOS>SUBSTRUCTURE
     1 A7O         1 TEMP              0 ****  ****    0 ROOT
