@<TRIPOS>MOLECULE
A7O
   72    76     1     0     0
SMALL
bcc


@<TRIPOS>ATOM
      1 C1          -6.2370    -1.7400     0.0540 ca         1 A7O      -0.059300
      2 C2          -5.6560    -2.1500     1.2470 ca         1 A7O      -0.209300
      3 C3          -4.3150    -1.8720     1.4700 ca         1 A7O       0.393200
      4 C4          -4.1060    -0.8280    -0.5410 ca         1 A7O       0.360800
      5 C5          -5.4370    -1.0680    -0.8590 ca         1 A7O      -0.168300
      6 C6          -7.6970    -1.9660    -0.2130 c3         1 A7O       0.178700
      7 C7          -3.2480    -0.1050    -1.5350 c          1 A7O       0.589600
      8 C10         -1.3670     0.5340     0.1480 cy         1 A7O       0.117500
      9 C11         -0.3750     1.4820    -0.5740 cy         1 A7O      -0.059400
     10 C12         -1.1440     1.1790    -1.8830 cy         1 A7O       0.117500
     11 C13          1.0800     1.1380    -0.5060 ca         1 A7O      -0.075300
     12 C14          1.5740    -0.0560    -1.0040 ca         1 A7O      -0.116000
     13 C15          2.9300    -0.3630    -0.9060 ca         1 A7O      -0.192000
     14 O9          -3.6220     0.0370    -2.6960 o          1 A7O      -0.615100
     15 N22         -3.5560    -1.2220     0.6010 nb         1 A7O      -0.659000
     16 O23         -8.3970    -0.8710     0.3250 os         1 A7O      -0.386600
     17 C32         -9.7870    -0.9820     0.1490 c3         1 A7O       0.100400
     18 C33        -10.4600     0.2570     0.7170 c3         1 A7O       0.144100
     19 O36        -10.0130     1.4380     0.0930 oh         1 A7O      -0.559800
     20 C34        -11.9700     0.0970     0.6440 c3         1 A7O       0.106400
     21 O35        -12.5780     1.1980     1.2750 oh         1 A7O      -0.578800
     22 N8          -2.0820     0.3800    -1.1150 nj         1 A7O      -0.472800
     23 C18          1.9720     2.0300     0.0970 ca         1 A7O      -0.180000
     24 C17          3.3220     1.7380     0.2050 ca         1 A7O       0.110100
     25 O19          4.2410     2.5430     0.7720 os         1 A7O      -0.295900
     26 C20          3.8090     3.7790     1.3030 c3         1 A7O       0.122700
     27 C16          3.8130     0.5190    -0.3040 ca         1 A7O       0.117100
     28 O21          5.1380     0.3190    -0.1580 os         1 A7O      -0.297900
     29 C24          5.6810    -0.9230    -0.5870 c3         1 A7O       0.186700
     30 C25          7.1340    -0.9230    -0.2270 ca         1 A7O      -0.097300
     31 C30          7.5330    -1.0850     1.0960 ca         1 A7O      -0.098500
     32 C29          8.8750    -1.0500     1.4400 ca         1 A7O      -0.132000
     33 C28          9.8630    -0.8520     0.4740 ca         1 A7O      -0.030300
     34 C27          9.4580    -0.6960    -0.8510 ca         1 A7O      -0.132000
     35 C26          8.1140    -0.7270    -1.1930 ca         1 A7O      -0.098500
     36 C31         11.2880    -0.8140     0.8800 cx         1 A7O      -0.089400
     37 C38         12.2740     0.0710     0.1640 cx         1 A7O      -0.121900
     38 C37         12.3620    -1.4090     0.0080 cx         1 A7O      -0.121900
     39 H1          -6.2290    -2.6830     1.9940 ha         1 A7O       0.144000
     40 H2          -3.8370    -2.1910     2.3890 h4         1 A7O       0.022100
     41 H3          -5.8410    -0.7340    -1.8050 ha         1 A7O       0.167000
     42 H4          -7.8750    -2.0570    -1.2920 h1         1 A7O       0.032700
     43 H5          -8.0220    -2.9080     0.2500 h1         1 A7O       0.032700
     44 H6          -0.9270    -0.3930     0.5140 h1         1 A7O       0.062700
     45 H7          -1.9510     0.9890     0.9480 h1         1 A7O       0.062700
     46 H8          -0.5240     2.5160    -0.2630 hc         1 A7O       0.066700
     47 H9          -1.5910     2.0450    -2.3730 h1         1 A7O       0.062700
     48 H10         -0.5880     0.6010    -2.6250 h1         1 A7O       0.062700
     49 H11          0.9160    -0.7720    -1.4800 ha         1 A7O       0.138000
     50 H12          3.2780    -1.3020    -1.3140 ha         1 A7O       0.137000
     51 H13        -10.0370    -1.0900    -0.9180 h1         1 A7O       0.023200
     52 H14        -10.1730    -1.8780     0.6550 h1         1 A7O       0.023200
     53 H15        -10.1740     0.3530     1.7700 h1         1 A7O       0.098700
     54 H16        -10.2590     1.4040    -0.8380 ho         1 A7O       0.395000
     55 H17        -12.2740     0.0150    -0.4100 h1         1 A7O       0.018200
     56 H18        -12.2470    -0.8500     1.1260 h1         1 A7O       0.018200
     57 H19        -13.5300     1.1000     1.1900 ho         1 A7O       0.404000
     58 H20          1.5860     2.9640     0.4830 ha         1 A7O       0.135000
     59 H21          3.0780     3.6460     2.1060 h1         1 A7O       0.039700
     60 H22          4.6910     4.2660     1.7100 h1         1 A7O       0.039700
     61 H23          3.3740     4.4240     0.5350 h1         1 A7O       0.039700
     62 H24          5.1600    -1.7510    -0.0930 h1         1 A7O       0.039200
     63 H25          5.5530    -1.0480    -1.6670 h1         1 A7O       0.039200
     64 H26          6.7900    -1.2440     1.8690 ha         1 A7O       0.132500
     65 H27          9.1610    -1.1790     2.4770 ha         1 A7O       0.130000
     66 H28         10.1920    -0.5440    -1.6340 ha         1 A7O       0.130000
     67 H29          7.8280    -0.5960    -2.2300 ha         1 A7O       0.132500
     68 H30         11.4420    -0.9190     1.9480 hc         1 A7O       0.081700
     69 H31         11.9080     0.6540    -0.6720 hc         1 A7O       0.073200
     70 H32         13.0220     0.5730     0.7640 hc         1 A7O       0.073200
     71 H33         13.1710    -1.9330     0.5010 hc         1 A7O       0.073200
     72 H34         12.0570    -1.8450    -0.9350 hc         1 A7O       0.073200
@<TRIPOS>BOND
     1     1     2 ar  
     2     1     5 ar  
     3     1     6 1   
     4     2     3 ar  
     5     2    39 1   
     6     3    15 ar  
     7     3    40 1   
     8     4     5 ar  
     9     4     7 1   
    10     4    15 ar  
    11     5    41 1   
    12     6    16 1   
    13     6    42 1   
    14     6    43 1   
    15     7    14 2   
    16     7    22 1   
    17     8     9 1   
    18     8    22 1   
    19     8    44 1   
    20     8    45 1   
    21     9    10 1   
    22     9    11 1   
    23     9    46 1   
    24    10    22 1   
    25    10    47 1   
    26    10    48 1   
    27    11    12 ar  
    28    11    23 ar  
    29    12    13 ar  
    30    12    49 1   
    31    13    27 ar  
    32    13    50 1   
    33    16    17 1   
    34    17    18 1   
    35    17    51 1   
    36    17    52 1   
    37    18    19 1   
    38    18    20 1   
    39    18    53 1   
    40    19    54 1   
    41    20    21 1   
    42    20    55 1   
    43    20    56 1   
    44    21    57 1   
    45    23    24 ar  
    46    23    58 1   
    47    24    25 1   
    48    24    27 ar  
    49    25    26 1   
    50    26    59 1   
    51    26    60 1   
    52    26    61 1   
    53    27    28 1   
    54    28    29 1   
    55    29    30 1   
    56    29    62 1   
    57    29    63 1   
    58    30    31 ar  
    59    30    35 ar  
    60    31    32 ar  
    61    31    64 1   
    62    32    33 ar  
    63    32    65 1   
    64    33    34 ar  
    65    33    36 1   
    66    34    35 ar  
    67    34    66 1   
    68    35    67 1   
    69    36    37 1   
    70    36    38 1   
    71    36    68 1   
    72    37    38 1   
    73    37    69 1   
    74    37    70 1   
    75    38    71 1   
    76    38    72 1   
@<TRIPOS>SUBSTRUCTURE
     1 A7O         1 TEMP              0 ****  ****    0 ROOT
