@<TRIPOS>MOLECULE
A7Q
   26    27     1     0     0
SMALL
abcg2


@<TRIPOS>ATOM
      1 C11          1.7010     1.0170    -0.1900 ca         1 A7Q       0.388900
      2 C10         -2.5470    -0.1050    -1.1740 ca         1 A7Q      -0.105500
      3 C9          -3.6990     0.6690    -1.1760 ca         1 A7Q      -0.103000
      4 C8          -4.2890     1.0540     0.0210 ca         1 A7Q      -0.110000
      5 C7          -3.7240     0.6580     1.2260 ca         1 A7Q      -0.103000
      6 C4           0.3370    -0.7840    -0.0330 ca         1 A7Q       0.586300
      7 C5          -1.9950    -0.4930     0.0370 ca         1 A7Q       0.113100
      8 C6          -2.5710    -0.1150     1.2390 ca         1 A7Q      -0.105500
      9 C3           1.4150    -1.6740    -0.0290 ca         1 A7Q      -0.184000
     10 C2           2.6790    -1.1380    -0.1150 ca         1 A7Q      -0.025000
     11 C1           2.8480     0.2480    -0.2060 ca         1 A7Q      -0.178300
     12 O            4.9480     0.5110     0.8480 oh         1 A7Q      -0.655000
     13 C            4.2090     0.8660    -0.3020 c3         1 A7Q       0.220900
     14 N            0.4670     0.5160    -0.1090 nb         1 A7Q      -0.736000
     15 O1          -0.8970    -1.3250     0.0530 os         1 A7Q      -0.374400
     16 H1           1.7710     2.0980    -0.2460 h4         1 A7Q       0.019100
     17 H3          -4.1360     0.9690    -2.1190 ha         1 A7Q       0.114500
     18 H4          -5.1880     1.6570     0.0140 ha         1 A7Q       0.114000
     19 H5          -4.1810     0.9490     2.1630 ha         1 A7Q       0.114500
     20 H6          -2.1280    -0.4260     2.1760 ha         1 A7Q       0.124500
     21 H7           1.2540    -2.7420     0.0370 ha         1 A7Q       0.139000
     22 H8           3.5380    -1.7970    -0.1180 ha         1 A7Q       0.126000
     23 H9           5.8660     0.7550     0.6960 ho         1 A7Q       0.442000
     24 H10          4.7040     0.5110    -1.2140 h1         1 A7Q       0.025700
     25 H11          4.1050     1.9540    -0.4010 h1         1 A7Q       0.025700
     26 H2          -2.0870    -0.4100    -2.1050 ha         1 A7Q       0.124500
@<TRIPOS>BOND
     1     1    11 ar  
     2     1    14 ar  
     3     1    16 1   
     4     2     3 ar  
     5     2     7 ar  
     6     2    26 1   
     7     3     4 ar  
     8     3    17 1   
     9     4     5 ar  
    10     4    18 1   
    11     5     8 ar  
    12     5    19 1   
    13     6     9 ar  
    14     6    14 ar  
    15     6    15 1   
    16     7     8 ar  
    17     7    15 1   
    18     8    20 1   
    19     9    10 ar  
    20     9    21 1   
    21    10    11 ar  
    22    10    22 1   
    23    11    13 1   
    24    12    13 1   
    25    12    23 1   
    26    13    24 1   
    27    13    25 1   
@<TRIPOS>SUBSTRUCTURE
     1 A7Q         1 TEMP              0 ****  ****    0 ROOT
