@<TRIPOS>MOLECULE
A7Q
   26    27     1     0     0
SMALL
No Charge or Current Charge


@<TRIPOS>ATOM
      1 C11          1.9010     1.1010     0.0550 ca         1 A7Q       0.388900
      2 C10         -2.2000     0.1880    -0.8470 ca         1 A7Q      -0.105500
      3 C9          -3.4050     0.8430    -1.1580 ca         1 A7Q      -0.103000
      4 C8          -4.4350     0.9120    -0.2030 ca         1 A7Q      -0.110000
      5 C7          -4.2630     0.3220     1.0610 ca         1 A7Q      -0.103000
      6 C4           0.3880    -0.6200     0.3910 ca         1 A7Q       0.586300
      7 C5          -2.0210    -0.3910     0.4260 ca         1 A7Q       0.113100
      8 C6          -3.0590    -0.3340     1.3730 ca         1 A7Q      -0.105500
      9 C3           1.3610    -1.5840     0.0850 ca         1 A7Q      -0.184000
     10 C2           2.6570    -1.1740    -0.2630 ca         1 A7Q      -0.025000
     11 C1           2.9310     0.2040    -0.2800 ca         1 A7Q      -0.178300
     12 O            5.1640     0.6740     0.4930 oh         1 A7Q      -0.655000
     13 C            4.3080     0.7220    -0.6500 c3         1 A7Q       0.220900
     14 N            0.6520     0.7060     0.3890 nb         1 A7Q      -0.736000
     15 O1          -0.8630    -1.0630     0.7500 os         1 A7Q      -0.374400
     16 H1           2.0800     2.1760     0.0570 h4         1 A7Q       0.019100
     17 H3          -3.5420     1.2940    -2.1390 ha         1 A7Q       0.114500
     18 H4          -5.3680     1.4190    -0.4440 ha         1 A7Q       0.114000
     19 H5          -5.0630     0.3700     1.7980 ha         1 A7Q       0.114500
     20 H6          -2.9260    -0.7950     2.3480 ha         1 A7Q       0.124500
     21 H7           1.1030    -2.6380     0.1160 ha         1 A7Q       0.139000
     22 H8           3.4260    -1.9040    -0.5080 ha         1 A7Q       0.126000
     23 H9           6.0420     1.0050     0.2010 ho         1 A7Q       0.442000
     24 H10          4.7200     0.1080    -1.4620 h1         1 A7Q       0.025700
     25 H11          4.2250     1.7520    -1.0230 h1         1 A7Q       0.025700
     26 H2          -1.4130     0.1290    -1.5940 ha         1 A7Q       0.124500
@<TRIPOS>BOND
     1     1    11 ar  
     2     1    14 ar  
     3     1    16 1   
     4     2     3 ar  
     5     2     7 ar  
     6     2    26 1   
     7     3     4 ar  
     8     3    17 1   
     9     4     5 ar  
    10     4    18 1   
    11     5     8 ar  
    12     5    19 1   
    13     6     9 ar  
    14     6    14 ar  
    15     6    15 1   
    16     7     8 ar  
    17     7    15 1   
    18     8    20 1   
    19     9    10 ar  
    20     9    21 1   
    21    10    11 ar  
    22    10    22 1   
    23    11    13 1   
    24    12    13 1   
    25    12    23 1   
    26    13    24 1   
    27    13    25 1   
@<TRIPOS>SUBSTRUCTURE
     1 A7Q         1 TEMP              0 ****  ****    0 ROOT
