@<TRIPOS>MOLECULE
A7R
   68    71     1     0     0
SMALL
bcc


@<TRIPOS>ATOM
      1 C01         -1.6040    -0.4390     2.8420 c5         1 A7R       0.114100
      2 C02         -1.6230    -1.9160     2.4610 c5         1 A7R       0.084100
      3 C03         -0.6440     0.1130     1.7960 c5         1 A7R       0.124100
      4 C04         -1.5490    -1.8550     0.9180 c5         1 A7R       0.273500
      5 C05          3.5850    -0.4670    -3.0640 c5         1 A7R       0.104100
      6 C06          2.6320    -1.5290    -2.5130 c5         1 A7R       0.044100
      7 C07          2.6320     0.7000    -3.2530 c5         1 A7R       0.098100
      8 C08          1.6870    -0.6730    -1.6350 c5         1 A7R       0.217800
      9 C09         -0.8580     1.5710     1.4470 c3         1 A7R       0.193400
     10 C10          3.2640     2.0760    -3.1820 c3         1 A7R       0.215400
     11 C11          2.1100    -1.6650     0.5290 ca         1 A7R       0.024700
     12 C12          2.7300     0.5670     0.2430 ca         1 A7R       0.089700
     13 C13          2.6220    -1.6930     1.8080 ca         1 A7R      -0.215600
     14 C14          3.2430     0.6020     1.5210 ca         1 A7R      -0.150000
     15 C15          3.2140    -0.5360     2.3070 ca         1 A7R      -0.034000
     16 C16          2.4460    -2.9660     2.5810 c          1 A7R       0.693700
     17 C17         -3.2600    -0.6480    -0.4050 cc         1 A7R       0.106600
     18 C18         -3.6330    -2.9280     0.1750 c          1 A7R       0.852900
     19 C19         -4.4150    -0.6190    -1.1040 cd         1 A7R      -0.431600
     20 C20         -5.1720    -1.8240    -1.1480 cd         1 A7R       0.781500
     21 N01          2.2050    -0.5690    -0.2290 na         1 A7R       0.029900
     22 N02          3.2750    -3.1480     3.6110 nt         1 A7R      -0.661000
     23 N03         -2.8640    -1.7670     0.2410 n          1 A7R      -0.399000
     24 N04         -6.3170    -1.8700    -1.8260 nv         1 A7R      -0.925800
     25 N05         -4.7710    -2.9230    -0.5280 nc         1 A7R      -0.795100
     26 O01         -0.7990    -0.7230     0.6400 os         1 A7R      -0.412600
     27 O02          1.6350     0.5550    -2.2230 os         1 A7R      -0.306600
     28 O03         -2.8800     0.1280     2.7040 oh         1 A7R      -0.579800
     29 O04         -2.7290    -2.5500     3.0200 oh         1 A7R      -0.618800
     30 O05          4.5720    -0.1380    -2.1220 oh         1 A7R      -0.579800
     31 O06          3.3050    -2.5410    -1.8380 oh         1 A7R      -0.597800
     32 O07         -0.1050     1.9040     0.3000 os         1 A7R      -0.581200
     33 O08          2.3020     3.1000    -3.3090 os         1 A7R      -0.549200
     34 O09          0.2590     3.0260    -1.9000 os         1 A7R      -0.702800
     35 O10         -2.0940     2.4770    -1.2160 o          1 A7R      -0.840500
     36 O11         -0.8030     4.3560     0.0320 o          1 A7R      -0.840500
     37 O12          1.3610     5.2580    -2.4690 o          1 A7R      -0.838000
     38 O13          2.5140     3.6220    -0.7920 o          1 A7R      -0.838000
     39 O14          1.5760    -3.7590     2.2530 o          1 A7R      -0.594100
     40 O15         -3.2320    -3.9320     0.7810 o          1 A7R      -0.713500
     41 P01         -0.8100     3.0340    -0.6730 p5         1 A7R       1.450800
     42 P02          1.6650     3.8720    -2.0020 p5         1 A7R       1.468800
     43 H1          -1.2040    -0.2840     3.8510 h1         1 A7R       0.053700
     44 H2          -0.6810    -2.3740     2.7890 h1         1 A7R       0.049700
     45 H3           0.3780    -0.0220     2.1680 h1         1 A7R       0.024700
     46 H4          -1.0480    -2.7340     0.5060 h2         1 A7R       0.081700
     47 H5           4.0180    -0.7760    -4.0220 h1         1 A7R       0.062700
     48 H6           2.0200    -1.9150    -3.3350 h1         1 A7R       0.074700
     49 H7           2.1270     0.5890    -4.2190 h1         1 A7R       0.083700
     50 H8           0.6880    -1.1010    -1.5310 h2         1 A7R       0.128700
     51 H9          -1.9230     1.7620     1.2970 h1         1 A7R       0.050200
     52 H10         -0.5420     2.1680     2.3120 h1         1 A7R       0.050200
     53 H11          3.8490     2.1940    -2.2700 h1         1 A7R       0.039200
     54 H12          3.9550     2.1610    -4.0250 h1         1 A7R       0.039200
     55 H13          1.6060    -2.5200     0.1050 h4         1 A7R       0.192000
     56 H14          2.7030     1.4530    -0.3760 h4         1 A7R       0.289000
     57 H15          3.6540     1.5280     1.8940 ha         1 A7R       0.201000
     58 H16          3.6140    -0.4950     3.3110 ha         1 A7R       0.149000
     59 H17         -2.6110     0.2150    -0.3810 h4         1 A7R       0.236000
     60 H18         -4.7240     0.2750    -1.6240 ha         1 A7R       0.183000
     61 H19          4.0590    -2.5470     3.7970 hn         1 A7R       0.320500
     62 H20          3.2160    -3.9960     4.1530 hn         1 A7R       0.320500
     63 H21         -6.6410    -1.0830    -2.3600 hn         1 A7R       0.440800
     64 H22         -6.8240    -2.7350    -1.9050 hn         1 A7R       0.440800
     65 H23         -3.5230    -0.5390     2.9760 ho         1 A7R       0.427000
     66 H24         -2.9590    -3.3030     2.4450 ho         1 A7R       0.465000
     67 H25          5.0920    -0.9270    -1.9360 ho         1 A7R       0.412000
     68 H26          2.9380    -3.3950    -2.0840 ho         1 A7R       0.425000
@<TRIPOS>BOND
     1     1     2 1   
     2     1     3 1   
     3     1    28 1   
     4     1    43 1   
     5     2     4 1   
     6     2    29 1   
     7     2    44 1   
     8     3     9 1   
     9     3    26 1   
    10     3    45 1   
    11     4    23 1   
    12     4    26 1   
    13     4    46 1   
    14     5     6 1   
    15     5     7 1   
    16     5    30 1   
    17     5    47 1   
    18     6     8 1   
    19     6    31 1   
    20     6    48 1   
    21     7    10 1   
    22     7    27 1   
    23     7    49 1   
    24     8    21 1   
    25     8    27 1   
    26     8    50 1   
    27     9    32 1   
    28     9    51 1   
    29     9    52 1   
    30    10    33 1   
    31    10    53 1   
    32    10    54 1   
    33    11    13 ar  
    34    11    21 2   
    35    11    55 1   
    36    12    14 ar  
    37    12    21 1   
    38    12    56 1   
    39    13    15 ar  
    40    13    16 1   
    41    14    15 ar  
    42    14    57 1   
    43    15    58 1   
    44    16    22 1   
    45    16    39 2   
    46    17    19 2   
    47    17    23 1   
    48    17    59 1   
    49    18    23 1   
    50    18    25 1   
    51    18    40 2   
    52    19    20 1   
    53    19    60 1   
    54    20    24 1   
    55    20    25 2   
    56    22    61 1   
    57    22    62 1   
    58    24    63 1   
    59    24    64 1   
    60    28    65 1   
    61    29    66 1   
    62    30    67 1   
    63    31    68 1   
    64    32    41 1   
    65    33    42 1   
    66    34    41 1   
    67    34    42 1   
    68    35    41 1   
    69    36    41 1   
    70    37    42 1   
    71    38    42 1   
@<TRIPOS>SUBSTRUCTURE
     1 A7R         1 TEMP              0 ****  ****    0 ROOT
