@<TRIPOS>MOLECULE
A7R
   68    71     1     0     0
SMALL
No Charge or Current Charge


@<TRIPOS>ATOM
      1 C01         -2.0410     0.0730     2.9910 c5         1 A7R       0.137300
      2 C02         -2.7840    -0.8080     1.9080 c5         1 A7R       0.107300
      3 C03         -0.7420     0.5840     2.2440 c5         1 A7R       0.147300
      4 C04         -1.6960    -0.8380     0.7700 c5         1 A7R       0.296700
      5 C05          1.1810    -1.4930    -3.1190 c5         1 A7R       0.127300
      6 C06          1.9030    -2.1760    -1.8890 c5         1 A7R       0.067300
      7 C07          0.7580    -0.0840    -2.5600 c5         1 A7R       0.121300
      8 C08          1.6100    -1.1370    -0.7480 c5         1 A7R       0.270300
      9 C09         -0.2500     2.0210     2.6100 c3         1 A7R       0.216600
     10 C10          0.8100     1.0960    -3.5630 c3         1 A7R       0.238600
     11 C11          2.7780    -2.2930     1.1540 ca         1 A7R       0.042700
     12 C12          2.8550     0.0900     1.0660 ca         1 A7R       0.057000
     13 C13          3.4570    -2.3020     2.3950 ca         1 A7R      -0.215600
     14 C14          3.5200     0.1230     2.3050 ca         1 A7R      -0.132000
     15 C15          3.8250    -1.0690     2.9750 ca         1 A7R      -0.016000
     16 C16          3.7610    -3.6250     3.0540 c          1 A7R       0.626700
     17 C17         -3.0020    -0.0230    -1.2020 cc         1 A7R       0.056600
     18 C18         -2.0330    -2.2560    -1.2470 c          1 A7R       0.710400
     19 C19         -3.5130    -0.2480    -2.4600 cd         1 A7R      -0.481600
     20 C20         -3.2510    -1.5000    -3.0460 cd         1 A7R       0.781500
     21 N01          2.4530    -1.1140     0.4610 na         1 A7R       0.051300
     22 N02          4.4000    -3.6220     4.2430 nt         1 A7R      -0.594000
     23 N03         -2.2720    -1.0390    -0.5860 n          1 A7R      -0.332000
     24 N04         -3.6990    -1.7800    -4.2520 nv         1 A7R      -1.036200
     25 N05         -2.5550    -2.4350    -2.4940 nc         1 A7R      -0.795100
     26 O01         -1.0400     0.4270     0.8490 os         1 A7R      -0.459000
     27 O02          1.6570     0.1070    -1.4580 os         1 A7R      -0.353000
     28 O03         -2.9490     1.1040     3.3770 oh         1 A7R      -0.702000
     29 O04         -4.0550    -0.1940     1.5560 oh         1 A7R      -0.741000
     30 O05          2.1300    -1.4310    -4.1830 oh         1 A7R      -0.702000
     31 O06          3.3210    -2.3430    -2.1750 oh         1 A7R      -0.720000
     32 O07          0.7630     2.5040     1.6910 os         1 A7R      -0.604400
     33 O08          0.0350     2.2100    -3.0760 os         1 A7R      -0.572400
     34 O09          0.3740     2.5850    -0.7030 os         1 A7R      -0.702800
     35 O10         -0.8700     4.2680     0.7770 o          1 A7R      -0.840500
     36 O11          1.5770     4.5480     0.4770 o          1 A7R      -0.840500
     37 O12         -0.1370     4.5780    -2.2610 o          1 A7R      -0.838000
     38 O13          2.1040     3.5160    -2.3670 o          1 A7R      -0.838000
     39 O14          3.4530    -4.6880     2.5450 o          1 A7R      -0.594100
     40 O15         -1.3560    -3.1410    -0.7500 o          1 A7R      -0.638000
     41 P01          0.4350     3.5810     0.5210 p5         1 A7R       1.450800
     42 P02          0.6510     3.3200    -2.0750 p5         1 A7R       1.468800
     43 H1          -1.7610    -0.5310     3.8670 h1         1 A7R       0.053700
     44 H2          -2.9530    -1.8260     2.2890 h1         1 A7R       0.049700
     45 H3           0.0880    -0.0990     2.4730 h1         1 A7R       0.024700
     46 H4          -0.9740    -1.6380     0.9750 h2         1 A7R       0.081700
     47 H5           0.2940    -2.0650    -3.4300 h1         1 A7R       0.062700
     48 H6           1.4380    -3.1470    -1.6580 h1         1 A7R       0.074700
     49 H7          -0.2680    -0.1300    -2.1700 h1         1 A7R       0.083700
     50 H8           0.5940    -1.2950    -0.3730 h2         1 A7R       0.128700
     51 H9          -1.1140     2.7000     2.6510 h1         1 A7R       0.050200
     52 H10          0.1650     1.9810     3.6280 h1         1 A7R       0.050200
     53 H11          1.8560     1.3750    -3.7520 h1         1 A7R       0.039200
     54 H12          0.3860     0.7550    -4.5170 h1         1 A7R       0.039200
     55 H13          2.4580    -3.2310     0.6970 h4         1 A7R       0.174000
     56 H14          2.6080     1.0220     0.5530 h4         1 A7R       0.271000
     57 H15          3.7960     1.0800     2.7440 ha         1 A7R       0.183000
     58 H16          4.3420    -1.0170     3.9310 ha         1 A7R       0.131000
     59 H17         -3.0860     0.8910    -0.6100 h4         1 A7R       0.286000
     60 H18         -4.0900     0.5050    -2.9830 ha         1 A7R       0.233000
     61 H19          4.6640    -2.7550     4.6820 hn         1 A7R       0.320500
     62 H20          4.6150    -4.5050     4.6830 hn         1 A7R       0.320500
     63 H21         -3.8580    -0.9880    -4.8610 hn         1 A7R       0.496000
     64 H22         -3.2600    -2.5860    -4.6740 hn         1 A7R       0.496000
     65 H23         -3.6900     0.9230     2.7310 ho         1 A7R       0.526000
     66 H24         -4.5370    -0.8340     0.9740 ho         1 A7R       0.564000
     67 H25          2.9470    -1.7540    -3.7090 ho         1 A7R       0.511000
     68 H26          3.6840    -3.0440    -1.5780 ho         1 A7R       0.524000
@<TRIPOS>BOND
     1     1     2 1   
     2     1     3 1   
     3     1    28 1   
     4     1    43 1   
     5     2     4 1   
     6     2    29 1   
     7     2    44 1   
     8     3     9 1   
     9     3    26 1   
    10     3    45 1   
    11     4    23 1   
    12     4    26 1   
    13     4    46 1   
    14     5     6 1   
    15     5     7 1   
    16     5    30 1   
    17     5    47 1   
    18     6     8 1   
    19     6    31 1   
    20     6    48 1   
    21     7    10 1   
    22     7    27 1   
    23     7    49 1   
    24     8    21 1   
    25     8    27 1   
    26     8    50 1   
    27     9    32 1   
    28     9    51 1   
    29     9    52 1   
    30    10    33 1   
    31    10    53 1   
    32    10    54 1   
    33    11    13 ar  
    34    11    21 2   
    35    11    55 1   
    36    12    14 ar  
    37    12    21 1   
    38    12    56 1   
    39    13    15 ar  
    40    13    16 1   
    41    14    15 ar  
    42    14    57 1   
    43    15    58 1   
    44    16    22 1   
    45    16    39 2   
    46    17    19 2   
    47    17    23 1   
    48    17    59 1   
    49    18    23 1   
    50    18    25 1   
    51    18    40 2   
    52    19    20 1   
    53    19    60 1   
    54    20    24 1   
    55    20    25 2   
    56    22    61 1   
    57    22    62 1   
    58    24    63 1   
    59    24    64 1   
    60    28    65 1   
    61    29    66 1   
    62    30    67 1   
    63    31    68 1   
    64    32    41 1   
    65    33    42 1   
    66    34    41 1   
    67    34    42 1   
    68    35    41 1   
    69    36    41 1   
    70    37    42 1   
    71    38    42 1   
@<TRIPOS>SUBSTRUCTURE
     1 A7R         1 TEMP              0 ****  ****    0 ROOT
