@<TRIPOS>MOLECULE
A7S
   50    52     1     0     0
SMALL
No Charge or Current Charge


@<TRIPOS>ATOM
      1 C1           3.4130    -0.6140     0.2210 ca         1 A7S      -0.056300
      2 C2           4.5120    -0.4060     1.0730 ca         1 A7S      -0.133000
      3 C3           3.5560    -1.4580    -0.8960 ca         1 A7S      -0.096000
      4 C4           2.0800     0.0620     0.5070 c3         1 A7S      -0.280100
      5 C5           5.7410    -1.0320     0.8080 ca         1 A7S       0.170000
      6 C6           5.8900    -1.8770    -0.3110 ca         1 A7S      -0.101300
      7 C7           4.7870    -2.0850    -1.1610 ca         1 A7S      -0.086000
      8 C8          -4.4160    -2.6890     0.1090 c3         1 A7S      -0.096400
      9 C9          -5.0000    -1.5340    -0.7320 c3         1 A7S       0.088000
     10 C10         -0.8720     1.5760     0.0770 ca         1 A7S       0.205000
     11 C11         -1.1560     0.5810    -0.8780 ca         1 A7S      -0.042000
     12 C12         -1.8960     1.9850     0.9450 ca         1 A7S      -0.106000
     13 C13         -3.1730     1.3930     0.8910 ca         1 A7S      -0.116300
     14 C14         -3.4360     0.3310    -0.0050 ca         1 A7S      -0.002000
     15 C15         -4.2720     1.8920     1.8240 c6         1 A7S      -0.026100
     16 C16         -2.4270    -0.0180    -0.9320 ca         1 A7S      -0.141000
     17 C17          7.2230    -2.5570    -0.5990 c3         1 A7S      -0.043800
     18 C18         -5.6380     1.8230     1.1220 c6         1 A7S      -0.159400
     19 C19         -5.8860     0.4410     0.5140 c          1 A7S       0.570000
     20 C20         -4.6480    -4.0730    -0.5270 c3         1 A7S      -0.089100
     21 F1           6.7840    -0.8150     1.6410 f          1 A7S      -0.178000
     22 N1          -4.7840    -0.1950    -0.1160 n          1 A7S      -0.223400
     23 N2           0.3750     2.2010     0.1790 nu         1 A7S      -0.877100
     24 O1           2.8170     2.6170     0.3020 o          1 A7S      -0.516500
     25 O2          -6.9940    -0.0750     0.6000 o          1 A7S      -0.535000
     26 O3           1.8180     1.4890    -1.7470 o          1 A7S      -0.516500
     27 S            1.8790     1.6630    -0.2930 s6         1 A7S       1.173100
     28 H1           4.4190     0.2420     1.9410 ha         1 A7S       0.140000
     29 H2           2.7130    -1.6280    -1.5620 ha         1 A7S       0.124000
     30 H3           1.2510    -0.5620     0.1580 h1         1 A7S       0.096700
     31 H4           1.9590     0.2420     1.5800 h1         1 A7S       0.096700
     32 H5           4.8790    -2.7340    -2.0300 ha         1 A7S       0.119000
     33 H6          -3.3390    -2.5370     0.2460 hc         1 A7S       0.049700
     34 H7          -4.8700    -2.6730     1.1070 hc         1 A7S       0.049700
     35 H8          -4.5620    -1.5480    -1.7370 h1         1 A7S       0.063700
     36 H9          -6.0720    -1.7160    -0.8770 h1         1 A7S       0.063700
     37 H10         -0.4060     0.2700    -1.5970 ha         1 A7S       0.144000
     38 H11         -1.7030     2.7780     1.6630 ha         1 A7S       0.112000
     39 H12         -4.2870     1.2750     2.7340 hc         1 A7S       0.060700
     40 H13         -4.0720     2.9230     2.1460 hc         1 A7S       0.060700
     41 H14         -2.6020    -0.7640    -1.7020 ha         1 A7S       0.131000
     42 H15          7.5210    -3.2060     0.2330 hc         1 A7S       0.049367
     43 H16          7.1790    -3.1770    -1.5020 hc         1 A7S       0.049367
     44 H17          8.0180    -1.8150    -0.7460 hc         1 A7S       0.049367
     45 H18         -6.4760     2.1250     1.7640 hc         1 A7S       0.079700
     46 H19         -5.5750     2.5190     0.2750 hc         1 A7S       0.079700
     47 H20         -5.7200    -4.2720    -0.6440 hc         1 A7S       0.036033
     48 H21         -4.1750    -4.1300    -1.5150 hc         1 A7S       0.036033
     49 H22         -4.2200    -4.8610     0.1040 hc         1 A7S       0.036033
     50 H23          0.5340     2.8310     0.9550 hn         1 A7S       0.488000
@<TRIPOS>BOND
     1     1     2 ar  
     2     1     3 ar  
     3     1     4 1   
     4     2     5 ar  
     5     2    28 1   
     6     3     7 ar  
     7     3    29 1   
     8     4    27 1   
     9     4    30 1   
    10     4    31 1   
    11     5     6 ar  
    12     5    21 1   
    13     6     7 ar  
    14     6    17 1   
    15     7    32 1   
    16     8     9 1   
    17     8    20 1   
    18     8    33 1   
    19     8    34 1   
    20     9    22 1   
    21     9    35 1   
    22     9    36 1   
    23    10    11 ar  
    24    10    12 ar  
    25    10    23 1   
    26    11    16 ar  
    27    11    37 1   
    28    12    13 ar  
    29    12    38 1   
    30    13    14 ar  
    31    13    15 1   
    32    14    16 ar  
    33    14    22 1   
    34    15    18 1   
    35    15    39 1   
    36    15    40 1   
    37    16    41 1   
    38    17    42 1   
    39    17    43 1   
    40    17    44 1   
    41    18    19 1   
    42    18    45 1   
    43    18    46 1   
    44    19    22 1   
    45    19    25 2   
    46    20    47 1   
    47    20    48 1   
    48    20    49 1   
    49    23    27 1   
    50    23    50 1   
    51    24    27 2   
    52    26    27 2   
@<TRIPOS>SUBSTRUCTURE
     1 A7S         1 TEMP              0 ****  ****    0 ROOT
