@<TRIPOS>MOLECULE
A7S
   50    52     1     0     0
SMALL
bcc


@<TRIPOS>ATOM
      1 C1           3.2270    -0.1020     0.5520 ca         1 A7S      -0.056300
      2 C2           4.5290     0.3890     0.5740 ca         1 A7S      -0.151000
      3 C3           3.0190    -1.4710     0.4390 ca         1 A7S      -0.114000
      4 C4           2.0670     0.8400     0.6210 c3         1 A7S      -0.169300
      5 C5           5.5790    -0.5020     0.5020 ca         1 A7S       0.134900
      6 C6           5.4110    -1.8760     0.3990 ca         1 A7S      -0.101300
      7 C7           4.0980    -2.3380     0.3700 ca         1 A7S      -0.104000
      8 C8          -4.1600    -2.5970    -0.7970 c3         1 A7S      -0.096400
      9 C9          -5.0420    -1.3560    -0.7590 c3         1 A7S       0.088000
     10 C10         -0.9540     1.6520    -0.5970 ca         1 A7S       0.066600
     11 C11         -1.6410     1.0300    -1.6280 ca         1 A7S      -0.060000
     12 C12         -1.4880     1.6250     0.6860 ca         1 A7S      -0.124000
     13 C13         -2.6830     0.9770     0.9500 ca         1 A7S      -0.116300
     14 C14         -3.3700     0.3390    -0.0890 ca         1 A7S       0.090600
     15 C15         -3.2730     0.9210     2.3240 c6         1 A7S      -0.026100
     16 C16         -2.8350     0.3770    -1.3760 ca         1 A7S      -0.159000
     17 C17          6.5870    -2.8020     0.3350 c3         1 A7S      -0.043800
     18 C18         -4.7840     0.9980     2.2090 c6         1 A7S      -0.159400
     19 C19         -5.3180    -0.0780     1.3010 c          1 A7S       0.712500
     20 C20         -4.6910    -3.6130    -1.7980 c3         1 A7S      -0.089100
     21 F1           6.8320    -0.0170     0.5340 f          1 A7S      -0.142900
     22 N1          -4.5700    -0.3460     0.1830 n          1 A7S      -0.383000
     23 N2           0.2680     2.3230    -0.8700 nu         1 A7S      -0.683500
     24 O1           2.6940     2.3660    -1.4500 o          1 A7S      -0.587300
     25 O2          -6.3620    -0.6620     1.5350 o          1 A7S      -0.610500
     26 O3           1.3480     0.2830    -1.8590 o          1 A7S      -0.587300
     27 S            1.6610     1.4340    -1.0320 s6         1 A7S       1.203900
     28 H1           4.7260     1.4500     0.6620 ha         1 A7S       0.158000
     29 H2           2.0110    -1.8650     0.4180 ha         1 A7S       0.142000
     30 H3           1.1750     0.3490     1.0130 h1         1 A7S       0.096700
     31 H4           2.2770     1.7220     1.2270 h1         1 A7S       0.096700
     32 H5           3.9230    -3.4040     0.2920 ha         1 A7S       0.137000
     33 H6          -3.1340    -2.3290    -1.0580 hc         1 A7S       0.049700
     34 H7          -4.1230    -3.0370     0.2030 hc         1 A7S       0.049700
     35 H8          -5.1310    -0.9150    -1.7550 h1         1 A7S       0.063700
     36 H9          -6.0500    -1.6320    -0.4640 h1         1 A7S       0.063700
     37 H10         -1.2560     1.0650    -2.6380 ha         1 A7S       0.162000
     38 H11         -0.9640     2.1140     1.4990 ha         1 A7S       0.130000
     39 H12         -2.9840    -0.0150     2.8140 hc         1 A7S       0.060700
     40 H13         -2.8900     1.7320     2.9430 hc         1 A7S       0.060700
     41 H14         -3.3420    -0.0920    -2.2070 ha         1 A7S       0.149000
     42 H15          7.2250    -2.7040     1.2140 hc         1 A7S       0.049367
     43 H16          6.2540    -3.8370     0.2790 hc         1 A7S       0.049367
     44 H17          7.2080    -2.6060    -0.5400 hc         1 A7S       0.049367
     45 H18         -5.2690     0.8980     3.1790 hc         1 A7S       0.079700
     46 H19         -5.0760     1.9690     1.7950 hc         1 A7S       0.079700
     47 H20         -5.6970    -3.9430    -1.5350 hc         1 A7S       0.036033
     48 H21         -4.7330    -3.1920    -2.8040 hc         1 A7S       0.036033
     49 H22         -4.0530    -4.4960    -1.8360 hc         1 A7S       0.036033
     50 H23          0.4200     3.1830    -0.3510 hn         1 A7S       0.432800
@<TRIPOS>BOND
     1     1     2 ar  
     2     1     3 ar  
     3     1     4 1   
     4     2     5 ar  
     5     2    28 1   
     6     3     7 ar  
     7     3    29 1   
     8     4    27 1   
     9     4    30 1   
    10     4    31 1   
    11     5     6 ar  
    12     5    21 1   
    13     6     7 ar  
    14     6    17 1   
    15     7    32 1   
    16     8     9 1   
    17     8    20 1   
    18     8    33 1   
    19     8    34 1   
    20     9    22 1   
    21     9    35 1   
    22     9    36 1   
    23    10    11 ar  
    24    10    12 ar  
    25    10    23 1   
    26    11    16 ar  
    27    11    37 1   
    28    12    13 ar  
    29    12    38 1   
    30    13    14 ar  
    31    13    15 1   
    32    14    16 ar  
    33    14    22 1   
    34    15    18 1   
    35    15    39 1   
    36    15    40 1   
    37    16    41 1   
    38    17    42 1   
    39    17    43 1   
    40    17    44 1   
    41    18    19 1   
    42    18    45 1   
    43    18    46 1   
    44    19    22 1   
    45    19    25 2   
    46    20    47 1   
    47    20    48 1   
    48    20    49 1   
    49    23    27 1   
    50    23    50 1   
    51    24    27 2   
    52    26    27 2   
@<TRIPOS>SUBSTRUCTURE
     1 A7S         1 TEMP              0 ****  ****    0 ROOT
