@<TRIPOS>MOLECULE
A7T
   82    87     1     0     0
SMALL
No Charge or Current Charge


@<TRIPOS>ATOM
      1 O26          5.0300     1.1040     2.8170 o          1 A7T      -0.600100
      2 C23          4.5120     1.0900     1.7050 c          1 A7T       0.619300
      3 N27          4.0400    -0.1480     1.1850 n          1 A7T      -0.366800
      4 C32          3.9890    -1.3510     2.0630 c3         1 A7T       0.137300
      5 C36          2.7550    -2.2410     1.8440 ca         1 A7T      -0.092300
      6 C38          1.4980    -1.6570     2.0890 ca         1 A7T      -0.094000
      7 C41          0.3160    -2.3720     1.8660 ca         1 A7T      -0.111000
      8 C42          0.3780    -3.6890     1.4000 ca         1 A7T      -0.112000
      9 C39          1.6210    -4.3120     1.1740 ca         1 A7T      -0.074300
     10 C43          1.6170    -5.7540     0.6680 c3         1 A7T      -0.044800
     11 C37          2.8280    -3.5960     1.4130 ca         1 A7T      -0.072300
     12 C40          4.1900    -4.2770     1.2180 c3         1 A7T      -0.051800
     13 C31          3.8370    -0.4290    -0.2400 cx         1 A7T       0.057700
     14 C35          4.7070    -1.4060    -0.9990 cx         1 A7T      -0.150900
     15 C34          4.7500     0.0570    -1.3440 cx         1 A7T      -0.150900
     16 C21          4.4400     2.3750     0.9030 ce         1 A7T      -0.190400
     17 C24          5.6070     3.3460     1.1820 c6         1 A7T       0.210700
     18 N28          5.1380     4.7460     1.0000 n7         1 A7T      -0.842400
     19 C29          6.8340     3.0360     0.2470 c6         1 A7T       0.163800
     20 N33          6.5540     3.3070    -1.1970 n7         1 A7T      -0.871400
     21 C30          5.9480     4.6570    -1.3930 c6         1 A7T       0.165800
     22 C25          4.7480     4.9560    -0.4150 c6         1 A7T       0.162500
     23 C22          3.4950     4.0950    -0.7300 c6         1 A7T      -0.065200
     24 C20          3.4460     2.7350     0.0170 cf         1 A7T      -0.003400
     25 C19          2.1480     2.0630    -0.2030 ca         1 A7T      -0.112800
     26 C17          1.3490     1.7190     0.9040 ca         1 A7T      -0.056500
     27 C15          0.1160     1.0740     0.7160 ca         1 A7T      -0.174000
     28 C18          1.6800     1.7750    -1.5030 ca         1 A7T      -0.056500
     29 C16          0.4530     1.1120    -1.6890 ca         1 A7T      -0.174000
     30 C14         -0.3300     0.7500    -0.5730 ca         1 A7T       0.147100
     31 O13         -1.5250     0.0740    -0.6860 os         1 A7T      -0.333100
     32 C12         -2.0630    -0.3340    -1.9590 c3         1 A7T       0.163600
     33 C8          -3.3410    -1.1580    -1.7030 c3         1 A7T       0.161600
     34 O5          -4.3540    -0.2850    -1.1690 os         1 A7T      -0.331100
     35 C3          -5.5560    -0.8220    -0.7620 ca         1 A7T       0.110100
     36 C6          -5.6710    -1.4570     0.4950 ca         1 A7T       0.105500
     37 Cl9         -4.2920    -1.5720     1.5910 cl         1 A7T      -0.175000
     38 C10         -6.9040    -1.9980     0.8980 ca         1 A7T      -0.099000
     39 C7          -8.0320    -1.9080     0.0600 ca         1 A7T      -0.060300
     40 C11         -9.3630    -2.4980     0.5000 c3         1 A7T      -0.048800
     41 C4          -7.9170    -1.2700    -1.1890 ca         1 A7T      -0.099000
     42 C2          -6.6870    -0.7260    -1.5990 ca         1 A7T       0.105500
     43 Cl1         -6.5790     0.0650    -3.1720 cl         1 A7T      -0.175000
     44 H32          4.9200    -1.9080     1.9150 h1         1 A7T       0.063200
     45 H32A         3.9750    -1.0420     3.1160 h1         1 A7T       0.063200
     46 H38          1.4420    -0.6350     2.4520 ha         1 A7T       0.126000
     47 H41         -0.6480    -1.9020     2.0470 ha         1 A7T       0.116000
     48 H42         -0.5480    -4.2310     1.2220 ha         1 A7T       0.107000
     49 H43          2.2290    -5.8590    -0.2360 hc         1 A7T       0.039367
     50 H43A         2.0080    -6.4400     1.4280 hc         1 A7T       0.039367
     51 H43B         0.6070    -6.0950     0.4110 hc         1 A7T       0.039367
     52 H40          4.8690    -4.0600     2.0500 hc         1 A7T       0.040367
     53 H40A         4.1280    -5.3680     1.1730 hc         1 A7T       0.040367
     54 H40B         4.6690    -3.9440     0.2910 hc         1 A7T       0.040367
     55 H31          2.7640    -0.4850    -0.4290 h1         1 A7T       0.116700
     56 H35          5.5760    -1.8220    -0.4950 hc         1 A7T       0.075700
     57 H35A         4.2140    -2.0810    -1.6930 hc         1 A7T       0.075700
     58 H34          4.2890     0.3740    -2.2760 hc         1 A7T       0.075700
     59 H34A         5.6450     0.6050    -1.0700 hc         1 A7T       0.075700
     60 H24          5.9470     3.2390     2.2230 h1         1 A7T       0.082700
     61 HN28         4.3120     4.8870     1.5910 hn         1 A7T       0.419000
     62 H29          7.6800     3.6620     0.5680 h1         1 A7T       0.042700
     63 H29A         7.1400     1.9870     0.3740 h1         1 A7T       0.042700
     64 HN33         7.4270     3.2420    -1.7340 hn         1 A7T       0.412000
     65 H30          6.7250     5.4170    -1.2240 h1         1 A7T       0.037200
     66 H30A         5.6160     4.7640    -2.4360 h1         1 A7T       0.037200
     67 H25          4.4720     6.0120    -0.5570 h1         1 A7T       0.062700
     68 H22          2.5980     4.6680    -0.4570 hc         1 A7T       0.058200
     69 H22A         3.4310     3.9390    -1.8140 hc         1 A7T       0.058200
     70 H17          1.6840     1.9550     1.9120 ha         1 A7T       0.122000
     71 H15         -0.4930     0.8080     1.5760 ha         1 A7T       0.125000
     72 H18          2.2800     2.0320    -2.3720 ha         1 A7T       0.122000
     73 H16          0.1330     0.8850    -2.7010 ha         1 A7T       0.125000
     74 H12         -2.3000     0.5350    -2.5860 h1         1 A7T       0.046700
     75 H12A        -1.3420    -0.9650    -2.4950 h1         1 A7T       0.046700
     76 H8          -3.6810    -1.6000    -2.6480 h1         1 A7T       0.049200
     77 H8A         -3.1130    -1.9750    -1.0080 h1         1 A7T       0.049200
     78 H10         -6.9830    -2.4870     1.8670 ha         1 A7T       0.132500
     79 H11        -10.2080    -1.9470     0.0680 hc         1 A7T       0.048367
     80 H11A        -9.4500    -3.5450     0.1840 hc         1 A7T       0.048367
     81 H11B        -9.4750    -2.4670     1.5900 hc         1 A7T       0.048367
     82 H4          -8.7800    -1.1940    -1.8460 ha         1 A7T       0.132500
@<TRIPOS>BOND
     1     1     2 2   
     2     2     3 1   
     3     2    16 1   
     4     3     4 1   
     5     3    13 1   
     6     4     5 1   
     7     4    44 1   
     8     4    45 1   
     9     5     6 ar  
    10     5    11 ar  
    11     6     7 ar  
    12     6    46 1   
    13     7     8 ar  
    14     7    47 1   
    15     8     9 ar  
    16     8    48 1   
    17     9    10 1   
    18     9    11 ar  
    19    10    49 1   
    20    10    50 1   
    21    10    51 1   
    22    11    12 1   
    23    12    52 1   
    24    12    53 1   
    25    12    54 1   
    26    13    14 1   
    27    13    15 1   
    28    13    55 1   
    29    14    15 1   
    30    14    56 1   
    31    14    57 1   
    32    15    58 1   
    33    15    59 1   
    34    16    17 1   
    35    16    24 2   
    36    17    18 1   
    37    17    19 1   
    38    17    60 1   
    39    18    22 1   
    40    18    61 1   
    41    19    20 1   
    42    19    62 1   
    43    19    63 1   
    44    20    21 1   
    45    20    64 1   
    46    21    22 1   
    47    21    65 1   
    48    21    66 1   
    49    22    23 1   
    50    22    67 1   
    51    23    24 1   
    52    23    68 1   
    53    23    69 1   
    54    24    25 1   
    55    25    26 ar  
    56    25    28 ar  
    57    26    27 ar  
    58    26    70 1   
    59    27    30 ar  
    60    27    71 1   
    61    28    29 ar  
    62    28    72 1   
    63    29    30 ar  
    64    29    73 1   
    65    30    31 1   
    66    31    32 1   
    67    32    33 1   
    68    32    74 1   
    69    32    75 1   
    70    33    34 1   
    71    33    76 1   
    72    33    77 1   
    73    34    35 1   
    74    35    36 ar  
    75    35    42 ar  
    76    36    37 1   
    77    36    38 ar  
    78    38    39 ar  
    79    38    78 1   
    80    39    40 1   
    81    39    41 ar  
    82    40    79 1   
    83    40    80 1   
    84    40    81 1   
    85    41    42 ar  
    86    41    82 1   
    87    42    43 1   
@<TRIPOS>SUBSTRUCTURE
     1 A7T         1 TEMP              0 ****  ****    0 ROOT
