@<TRIPOS>MOLECULE
A7T
   82    87     1     0     0
SMALL
abcg2


@<TRIPOS>ATOM
      1 O26          3.7210     0.7480     2.6280 o          1 A7T      -0.600100
      2 C23          3.9810     0.9000     1.4390 c          1 A7T       0.619300
      3 N27          4.2330    -0.1490     0.6200 n          1 A7T      -0.366800
      4 C32          4.2270    -1.4820     1.1850 c3         1 A7T       0.137300
      5 C36          2.9160    -2.2270     1.0770 ca         1 A7T      -0.092300
      6 C38          1.7990    -1.6450     0.4930 ca         1 A7T      -0.094000
      7 C41          0.6030    -2.3430     0.4270 ca         1 A7T      -0.111000
      8 C42          0.5280    -3.6300     0.9330 ca         1 A7T      -0.112000
      9 C39          1.6400    -4.2400     1.5120 ca         1 A7T      -0.074300
     10 C43          1.5080    -5.6420     2.0410 c3         1 A7T      -0.044800
     11 C37          2.8460    -3.5320     1.5890 ca         1 A7T      -0.072300
     12 C40          4.0700    -4.1410     2.2160 c3         1 A7T      -0.051800
     13 C31          4.6010     0.0100    -0.7630 cx         1 A7T       0.057700
     14 C35          4.4370    -1.0870    -1.7600 cx         1 A7T      -0.150900
     15 C34          5.8150    -0.6420    -1.3460 cx         1 A7T      -0.150900
     16 C21          4.0990     2.2810     0.8820 ce         1 A7T      -0.190400
     17 C24          5.3670     3.0300     1.2380 c6         1 A7T       0.210700
     18 N28          5.1710     4.4700     1.2420 n7         1 A7T      -0.842400
     19 C29          6.4820     2.7120     0.2410 c6         1 A7T       0.163800
     20 N33          6.0670     3.1500    -1.0760 n7         1 A7T      -0.871400
     21 C30          5.7620     4.5680    -1.0900 c6         1 A7T       0.165800
     22 C25          4.6790     4.8890    -0.0660 c6         1 A7T       0.162500
     23 C22          3.3190     4.2540    -0.3920 c6         1 A7T      -0.065200
     24 C20          3.1440     2.8650     0.1560 cf         1 A7T      -0.003400
     25 C19          1.8540     2.2020    -0.1330 ca         1 A7T      -0.112800
     26 C17          0.9860     1.8450     0.9000 ca         1 A7T      -0.056500
     27 C15         -0.2240     1.2300     0.6400 ca         1 A7T      -0.174000
     28 C18          1.4520     1.9430    -1.4400 ca         1 A7T      -0.056500
     29 C16          0.2440     1.3170    -1.7200 ca         1 A7T      -0.174000
     30 C14         -0.5980     0.9480    -0.6740 ca         1 A7T       0.147100
     31 O13         -1.7720     0.3070    -0.8250 os         1 A7T      -0.333100
     32 C12         -2.2560     0.0300    -2.1210 c3         1 A7T       0.163600
     33 C8          -3.5040    -0.7980    -1.9740 c3         1 A7T       0.161600
     34 O5          -4.4760    -0.0340    -1.2590 os         1 A7T      -0.331100
     35 C3          -5.5060    -0.7390    -0.7540 ca         1 A7T       0.110100
     36 C6          -5.4310    -1.3410     0.4980 ca         1 A7T       0.105500
     37 CL9         -3.9650    -1.1960     1.3980 cl         1 A7T      -0.175000
     38 C10         -6.5050    -2.0290     1.0390 ca         1 A7T      -0.099000
     39 C7          -7.6960    -2.1440     0.3310 ca         1 A7T      -0.060300
     40 C11         -8.8670    -2.8850     0.9050 c3         1 A7T      -0.048800
     41 C4          -7.7860    -1.5510    -0.9260 ca         1 A7T      -0.099000
     42 C2          -6.7030    -0.8720    -1.4550 ca         1 A7T       0.105500
     43 CL1         -6.8240    -0.1400    -3.0140 cl         1 A7T      -0.175000
     44 H32          5.0180    -2.0650     0.7060 h1         1 A7T       0.063200
     45 H32A         4.5200    -1.4130     2.2330 h1         1 A7T       0.063200
     46 H38          1.8580    -0.6430     0.0930 ha         1 A7T       0.126000
     47 H41         -0.2740    -1.8790    -0.0070 ha         1 A7T       0.116000
     48 H42         -0.4070    -4.1750     0.8820 ha         1 A7T       0.107000
     49 H43          2.1860    -6.3340     1.5390 hc         1 A7T       0.039367
     50 H43A         1.7250    -5.7010     3.1090 hc         1 A7T       0.039367
     51 H43B         0.4950    -6.0130     1.8930 hc         1 A7T       0.039367
     52 H40          4.4230    -3.5470     3.0620 hc         1 A7T       0.040367
     53 H40A         3.8960    -5.1480     2.5850 hc         1 A7T       0.040367
     54 H40B         4.9000    -4.1990     1.5070 hc         1 A7T       0.040367
     55 H31          4.4090     1.0080    -1.1290 h1         1 A7T       0.116700
     56 H35          4.1080    -2.0620    -1.4230 hc         1 A7T       0.075700
     57 H35A         4.0680    -0.8160    -2.7400 hc         1 A7T       0.075700
     58 H34          6.4090    -0.0520    -2.0330 hc         1 A7T       0.075700
     59 H34A         6.3950    -1.3190    -0.7310 hc         1 A7T       0.075700
     60 H24          5.6970     2.7260     2.2360 h1         1 A7T       0.082700
     61 HN28         4.4900     4.7120     1.9530 hn         1 A7T       0.419000
     62 H29          7.4000     3.2070     0.5930 h1         1 A7T       0.042700
     63 H29A         6.6770     1.6380     0.2200 h1         1 A7T       0.042700
     64 HN33         6.7870     2.9430    -1.7540 hn         1 A7T       0.412000
     65 H30          6.6380     5.1950    -0.8570 h1         1 A7T       0.037200
     66 H30A         5.4180     4.8500    -2.0870 h1         1 A7T       0.037200
     67 H25          4.5580     5.9740    -0.0530 h1         1 A7T       0.062700
     68 H22          2.5130     4.8830     0.0040 hc         1 A7T       0.058200
     69 H22A         3.1620     4.2320    -1.4750 hc         1 A7T       0.058200
     70 H17          1.2620     2.0520     1.9260 ha         1 A7T       0.122000
     71 H15         -0.8840     0.9520     1.4510 ha         1 A7T       0.125000
     72 H18          2.0970     2.2170    -2.2660 ha         1 A7T       0.122000
     73 H16         -0.0170     1.1250    -2.7520 ha         1 A7T       0.125000
     74 H12         -2.4620     0.9560    -2.6700 h1         1 A7T       0.046700
     75 H12A        -1.5390    -0.5550    -2.7070 h1         1 A7T       0.046700
     76 H8          -3.8770    -1.0580    -2.9680 h1         1 A7T       0.049200
     77 H8A         -3.2760    -1.7270    -1.4440 h1         1 A7T       0.049200
     78 H10         -6.4110    -2.4790     2.0190 ha         1 A7T       0.132500
     79 H11         -9.7440    -2.2410     0.9720 hc         1 A7T       0.048367
     80 H11A        -9.1380    -3.7360     0.2790 hc         1 A7T       0.048367
     81 H11B        -8.6490    -3.2610     1.9030 hc         1 A7T       0.048367
     82 H4          -8.7020    -1.6230    -1.4980 ha         1 A7T       0.132500
@<TRIPOS>BOND
     1     1     2 2   
     2     2     3 1   
     3     2    16 1   
     4     3     4 1   
     5     3    13 1   
     6     4     5 1   
     7     4    44 1   
     8     4    45 1   
     9     5     6 ar  
    10     5    11 ar  
    11     6     7 ar  
    12     6    46 1   
    13     7     8 ar  
    14     7    47 1   
    15     8     9 ar  
    16     8    48 1   
    17     9    10 1   
    18     9    11 ar  
    19    10    49 1   
    20    10    50 1   
    21    10    51 1   
    22    11    12 1   
    23    12    52 1   
    24    12    53 1   
    25    12    54 1   
    26    13    14 1   
    27    13    15 1   
    28    13    55 1   
    29    14    15 1   
    30    14    56 1   
    31    14    57 1   
    32    15    58 1   
    33    15    59 1   
    34    16    17 1   
    35    16    24 2   
    36    17    18 1   
    37    17    19 1   
    38    17    60 1   
    39    18    22 1   
    40    18    61 1   
    41    19    20 1   
    42    19    62 1   
    43    19    63 1   
    44    20    21 1   
    45    20    64 1   
    46    21    22 1   
    47    21    65 1   
    48    21    66 1   
    49    22    23 1   
    50    22    67 1   
    51    23    24 1   
    52    23    68 1   
    53    23    69 1   
    54    24    25 1   
    55    25    26 ar  
    56    25    28 ar  
    57    26    27 ar  
    58    26    70 1   
    59    27    30 ar  
    60    27    71 1   
    61    28    29 ar  
    62    28    72 1   
    63    29    30 ar  
    64    29    73 1   
    65    30    31 1   
    66    31    32 1   
    67    32    33 1   
    68    32    74 1   
    69    32    75 1   
    70    33    34 1   
    71    33    76 1   
    72    33    77 1   
    73    34    35 1   
    74    35    36 ar  
    75    35    42 ar  
    76    36    37 1   
    77    36    38 ar  
    78    38    39 ar  
    79    38    78 1   
    80    39    40 1   
    81    39    41 ar  
    82    40    79 1   
    83    40    80 1   
    84    40    81 1   
    85    41    42 ar  
    86    41    82 1   
    87    42    43 1   
@<TRIPOS>SUBSTRUCTURE
     1 A7T         1 TEMP              0 ****  ****    0 ROOT
