@<TRIPOS>MOLECULE
A7V
   83    82     1     0     0
SMALL
abcg2


@<TRIPOS>ATOM
      1 P01         21.1970     7.0450   -10.3230 p5         1 A7V       1.275900
      2 C01         26.5630     1.6700   -13.1880 c3         1 A7V       0.114000
      3 N01         25.5520     2.4420   -12.4990 ns         1 A7V      -0.522900
      4 O01         22.1900     6.3770   -11.5060 os         1 A7V      -0.597400
      5 C02         25.3750     3.7590   -12.6890 c          1 A7V       0.555100
      6 N02         29.1170    -0.4790   -13.0120 ns         1 A7V      -0.515900
      7 O02         22.0390     8.2280    -9.8650 o          1 A7V      -0.929167
      8 C03         24.1550     4.3600   -11.9830 c3         1 A7V       0.112300
      9 N03         27.5700    -1.6890   -15.0780 ns         1 A7V      -0.509900
     10 C04         22.9550     4.5750   -12.9450 c3         1 A7V      -0.052000
     11 O04         21.0130     5.9540    -9.2710 o          1 A7V      -0.929167
     12 C05         21.7940     5.1780   -12.1380 c3         1 A7V       0.248600
     13 O05         23.7250     3.5280   -10.9030 oh         1 A7V      -0.655000
     14 C06         27.8770     1.5240   -12.4000 c3         1 A7V      -0.182400
     15 C07         28.8840     0.8230   -13.2890 c          1 A7V       0.586100
     16 O07         29.4050     1.4130   -14.2370 o          1 A7V      -0.584100
     17 C08         22.4770     3.2430   -13.5370 c3         1 A7V      -0.075600
     18 O08         28.5020    -0.8120   -16.9510 o          1 A7V      -0.586100
     19 C09         23.3310     5.5360   -14.0780 c3         1 A7V      -0.075600
     20 C10         29.7680    -1.3770   -13.9490 c3         1 A7V       0.065000
     21 C11         28.7650    -2.3520   -14.5910 c3         1 A7V       0.082000
     22 C12         27.5590    -0.8750   -16.1630 c          1 A7V       0.616300
     23 C13         26.3060    -0.0910   -16.2710 ce         1 A7V      -0.330200
     24 C14         26.1150     1.1040   -16.8310 c2         1 A7V       0.180800
     25 C15         24.8070     1.8380   -16.7740 c3         1 A7V      -0.059200
     26 C16         23.8490     1.5160   -17.9330 c3         1 A7V      -0.066400
     27 C17         24.3710     1.8750   -19.3210 c3         1 A7V      -0.080400
     28 C18         23.3210     1.6650   -20.4110 c3         1 A7V      -0.072400
     29 C19         23.8400     1.8920   -21.8330 c3         1 A7V      -0.070400
     30 C20         24.3170     3.3180   -22.1090 c3         1 A7V      -0.079400
     31 C21         24.7360     3.5330   -23.5630 c3         1 A7V      -0.073400
     32 C22         25.2100     4.9540   -23.8780 c3         1 A7V      -0.072400
     33 C23         26.5240     5.3380   -23.1940 c3         1 A7V      -0.076400
     34 C24         27.0750     6.7020   -23.6170 c3         1 A7V      -0.073400
     35 C25         26.1990     7.8830   -23.1980 c3         1 A7V      -0.090100
     36 H1          26.1480     0.6840   -13.3950 h1         1 A7V       0.046200
     37 H2          26.7700     2.1570   -14.1380 h1         1 A7V       0.046200
     38 H3          24.9090     1.9800   -11.8750 hn         1 A7V       0.332500
     39 H4          28.6160    -0.8890   -12.2390 hn         1 A7V       0.300500
     40 H6          24.4550     5.3380   -11.6050 h1         1 A7V       0.118700
     41 H7          26.7960    -1.6200   -14.4360 hn         1 A7V       0.306500
     42 H9          20.9650     5.3680   -12.8320 h1         1 A7V       0.013200
     43 H10         21.4490     4.4560   -11.3950 h1         1 A7V       0.013200
     44 H11         24.2860     3.7060   -10.1390 ho         1 A7V       0.441000
     45 H12         28.2630     2.5130   -12.1550 hc         1 A7V       0.070200
     46 H13         27.7000     0.9740   -11.4740 hc         1 A7V       0.070200
     47 H14         22.2430     2.5190   -12.7550 hc         1 A7V       0.022367
     48 H15         21.5760     3.4050   -14.1320 hc         1 A7V       0.022367
     49 H16         23.2340     2.8080   -14.1900 hc         1 A7V       0.022367
     50 H17         23.6920     6.4870   -13.6850 hc         1 A7V       0.022367
     51 H18         24.1030     5.1160   -14.7210 hc         1 A7V       0.022367
     52 H19         22.4460     5.7320   -14.6870 hc         1 A7V       0.022367
     53 H20         30.5470    -1.9520   -13.4440 h1         1 A7V       0.069200
     54 H21         30.2330    -0.7600   -14.7120 h1         1 A7V       0.069200
     55 H22         28.4450    -3.0940   -13.8600 h1         1 A7V       0.049700
     56 H23         29.2580    -2.8750   -15.4110 h1         1 A7V       0.049700
     57 H24         25.4510    -0.4930   -15.7390 ha         1 A7V       0.182000
     58 H28         25.0010     2.9120   -16.7440 hc         1 A7V       0.080700
     59 H29         24.3200     1.5700   -15.8350 hc         1 A7V       0.080700
     60 H30         22.9200     2.0610   -17.7440 hc         1 A7V       0.043700
     61 H31         23.6010     0.4510   -17.8980 hc         1 A7V       0.043700
     62 H32         25.2520     1.2690   -19.5540 hc         1 A7V       0.046700
     63 H33         24.7060     2.9160   -19.3200 hc         1 A7V       0.046700
     64 H34         22.4720     2.3330   -20.2260 hc         1 A7V       0.036200
     65 H35         22.9310     0.6440   -20.3340 hc         1 A7V       0.036200
     66 H36         23.0470     1.6410   -22.5450 hc         1 A7V       0.030700
     67 H37         24.6630     1.1960   -22.0300 hc         1 A7V       0.030700
     68 H38         25.1530     3.5570   -21.4480 hc         1 A7V       0.045200
     69 H39         23.5150     4.0220   -21.8590 hc         1 A7V       0.045200
     70 H40         23.8890     3.2880   -24.2120 hc         1 A7V       0.030700
     71 H41         25.5340     2.8240   -23.8160 hc         1 A7V       0.030700
     72 H42         24.4230     5.6610   -23.5960 hc         1 A7V       0.034200
     73 H43         25.3410     5.0550   -24.9610 hc         1 A7V       0.034200
     74 H44         27.2700     4.5680   -23.4210 hc         1 A7V       0.041700
     75 H45         26.3960     5.3310   -22.1070 hc         1 A7V       0.041700
     76 H46         28.0720     6.8290   -23.1840 hc         1 A7V       0.031200
     77 H47         27.2090     6.7140   -24.7040 hc         1 A7V       0.031200
     78 H48         26.6630     8.8330   -23.4710 hc         1 A7V       0.032367
     79 H49         25.2170     7.8460   -23.6740 hc         1 A7V       0.032367
     80 H50         26.0430     7.8840   -22.1160 hc         1 A7V       0.032367
     81 O1          19.9040     7.4250   -11.0380 o          1 A7V      -0.929167
     82 CL1         27.4000     1.9690   -17.6450 cl         1 A7V      -0.176000
     83 O06         26.1140     4.4490   -13.3950 o          1 A7V      -0.622100
@<TRIPOS>BOND
     1     1     4 1   
     2     1     7 1   
     3     1    11 1   
     4     1    81 1   
     5     2     3 1   
     6     2    14 1   
     7     2    36 1   
     8     2    37 1   
     9     3     5 1   
    10     3    38 1   
    11     4    12 1   
    12     5     8 1   
    13     5    83 2   
    14     6    15 1   
    15     6    20 1   
    16     6    39 1   
    17     8    10 1   
    18     8    13 1   
    19     8    40 1   
    20     9    21 1   
    21     9    22 1   
    22     9    41 1   
    23    10    12 1   
    24    10    17 1   
    25    10    19 1   
    26    12    42 1   
    27    12    43 1   
    28    13    44 1   
    29    14    15 1   
    30    14    45 1   
    31    14    46 1   
    32    15    16 2   
    33    17    47 1   
    34    17    48 1   
    35    17    49 1   
    36    18    22 2   
    37    19    50 1   
    38    19    51 1   
    39    19    52 1   
    40    20    21 1   
    41    20    53 1   
    42    20    54 1   
    43    21    55 1   
    44    21    56 1   
    45    22    23 1   
    46    23    24 2   
    47    23    57 1   
    48    24    25 1   
    49    24    82 1   
    50    25    26 1   
    51    25    58 1   
    52    25    59 1   
    53    26    27 1   
    54    26    60 1   
    55    26    61 1   
    56    27    28 1   
    57    27    62 1   
    58    27    63 1   
    59    28    29 1   
    60    28    64 1   
    61    28    65 1   
    62    29    30 1   
    63    29    66 1   
    64    29    67 1   
    65    30    31 1   
    66    30    68 1   
    67    30    69 1   
    68    31    32 1   
    69    31    70 1   
    70    31    71 1   
    71    32    33 1   
    72    32    72 1   
    73    32    73 1   
    74    33    34 1   
    75    33    74 1   
    76    33    75 1   
    77    34    35 1   
    78    34    76 1   
    79    34    77 1   
    80    35    78 1   
    81    35    79 1   
    82    35    80 1   
@<TRIPOS>SUBSTRUCTURE
     1 A7V         1 TEMP              0 ****  ****    0 ROOT
