@<TRIPOS>MOLECULE
A7V
   83    82     1     0     0
SMALL
No Charge or Current Charge


@<TRIPOS>ATOM
      1 P01         21.2270     7.4880   -10.3330 p5         1 A7V       1.275900
      2 C01         26.5450     1.7120   -13.3000 c3         1 A7V       0.114000
      3 N01         25.4720     2.3930   -12.5790 ns         1 A7V      -0.522900
      4 O01         22.2940     6.4760   -10.9820 os         1 A7V      -0.597400
      5 C02         25.4120     3.7500   -12.3380 c          1 A7V       0.555100
      6 N02         28.9120    -0.6690   -13.0500 ns         1 A7V      -0.515900
      7 O02         21.9670     8.5710    -9.6280 o          1 A7V      -0.929167
      8 C03         24.1350     4.2330   -11.5740 c3         1 A7V       0.112300
      9 N03         27.5490    -1.8400   -15.2860 ns         1 A7V      -0.509900
     10 C04         22.9630     4.6820   -12.5260 c3         1 A7V      -0.052000
     11 O04         20.3740     6.7610    -9.3540 o          1 A7V      -0.929167
     12 C05         21.8090     5.3230   -11.6870 c3         1 A7V       0.248600
     13 O05         23.6660     3.2330   -10.6220 oh         1 A7V      -0.655000
     14 C06         27.7480     1.3870   -12.4000 c3         1 A7V      -0.182400
     15 C07         28.8210     0.6940   -13.2320 c          1 A7V       0.586100
     16 O07         29.5490     1.3070   -13.9980 o          1 A7V      -0.584100
     17 C08         22.3780     3.4700   -13.3110 c3         1 A7V      -0.075600
     18 O08         28.6200    -0.6260   -16.8850 o          1 A7V      -0.586100
     19 C09         23.4710     5.7220   -13.5710 c3         1 A7V      -0.075600
     20 C10         29.6590    -1.5790   -13.9360 c3         1 A7V       0.065000
     21 C11         28.7190    -2.5270   -14.7200 c3         1 A7V       0.082000
     22 C12         27.5950    -0.8890   -16.2760 c          1 A7V       0.616300
     23 C13         26.3110    -0.1660   -16.4390 ce         1 A7V      -0.330200
     24 C14         26.1660     1.1340   -16.7820 c2         1 A7V       0.180800
     25 C15         24.8200     1.8340   -16.8130 c3         1 A7V      -0.059200
     26 C16         23.9420     1.4250   -18.0190 c3         1 A7V      -0.066400
     27 C17         24.5580     1.7860   -19.3900 c3         1 A7V      -0.080400
     28 C18         23.6400     1.4190   -20.5790 c3         1 A7V      -0.072400
     29 C19         24.2640     1.6710   -21.9720 c3         1 A7V      -0.070400
     30 C20         24.5410     3.1590   -22.2910 c3         1 A7V      -0.079400
     31 C21         25.0840     3.3760   -23.7230 c3         1 A7V      -0.073400
     32 C22         25.3000     4.8600   -24.1070 c3         1 A7V      -0.072400
     33 C23         26.4020     5.5780   -23.2890 c3         1 A7V      -0.076400
     34 C24         26.7270     7.0090   -23.7800 c3         1 A7V      -0.073400
     35 C25         25.5650     8.0130   -23.6290 c3         1 A7V      -0.090100
     36 H1          26.1410     0.7810   -13.7190 h1         1 A7V       0.046200
     37 H2          26.8680     2.3450   -14.1380 h1         1 A7V       0.046200
     38 H3          24.6820     1.8510   -12.2460 hn         1 A7V       0.332500
     39 H4          28.2830    -1.0770   -12.3690 hn         1 A7V       0.300500
     40 H6          24.4690     5.1270   -11.0290 h1         1 A7V       0.118700
     41 H7          26.6530    -1.9760   -14.8330 hn         1 A7V       0.306500
     42 H9          20.9900     5.6010   -12.3630 h1         1 A7V       0.013200
     43 H10         21.4120     4.5830   -10.9790 h1         1 A7V       0.013200
     44 H11         24.3400     3.1620    -9.9090 ho         1 A7V       0.441000
     45 H12         28.1530     2.3230   -11.9990 hc         1 A7V       0.070200
     46 H13         27.4100     0.7350   -11.5860 hc         1 A7V       0.070200
     47 H14         21.9830     2.7050   -12.6320 hc         1 A7V       0.022367
     48 H15         21.5550     3.7910   -13.9610 hc         1 A7V       0.022367
     49 H16         23.1370     3.0020   -13.9480 hc         1 A7V       0.022367
     50 H17         23.9810     6.5610   -13.0830 hc         1 A7V       0.022367
     51 H18         24.1730     5.2670   -14.2790 hc         1 A7V       0.022367
     52 H19         22.6350     6.1280   -14.1540 hc         1 A7V       0.022367
     53 H20         30.3600    -2.1730   -13.3350 h1         1 A7V       0.069200
     54 H21         30.2510    -0.9940   -14.6530 h1         1 A7V       0.069200
     55 H22         28.3550    -3.3070   -14.0390 h1         1 A7V       0.049700
     56 H23         29.2780    -3.0190   -15.5260 h1         1 A7V       0.049700
     57 H24         25.4300    -0.7180   -16.1200 ha         1 A7V       0.182000
     58 H28         24.9500     2.9230   -16.8190 hc         1 A7V       0.080700
     59 H29         24.2740     1.6070   -15.8900 hc         1 A7V       0.080700
     60 H30         22.9660     1.9180   -17.9250 hc         1 A7V       0.043700
     61 H31         23.7530     0.3440   -17.9780 hc         1 A7V       0.043700
     62 H32         25.5170     1.2660   -19.5070 hc         1 A7V       0.046700
     63 H33         24.7710     2.8620   -19.4070 hc         1 A7V       0.046700
     64 H34         22.6990     1.9770   -20.4980 hc         1 A7V       0.036200
     65 H35         23.3790     0.3560   -20.5070 hc         1 A7V       0.036200
     66 H36         23.5810     1.2700   -22.7320 hc         1 A7V       0.030700
     67 H37         25.1970     1.1010   -22.0580 hc         1 A7V       0.030700
     68 H38         25.2670     3.5520   -21.5690 hc         1 A7V       0.045200
     69 H39         23.6150     3.7340   -22.1640 hc         1 A7V       0.045200
     70 H40         24.3780     2.9360   -24.4380 hc         1 A7V       0.030700
     71 H41         26.0290     2.8310   -23.8400 hc         1 A7V       0.030700
     72 H42         24.3490     5.3950   -23.9980 hc         1 A7V       0.034200
     73 H43         25.5660     4.9040   -25.1710 hc         1 A7V       0.034200
     74 H44         27.3210     4.9810   -23.3330 hc         1 A7V       0.041700
     75 H45         26.1090     5.6270   -22.2330 hc         1 A7V       0.041700
     76 H46         27.5870     7.3850   -23.2120 hc         1 A7V       0.031200
     77 H47         27.0380     6.9720   -24.8310 hc         1 A7V       0.031200
     78 H48         25.8920     9.0180   -23.9200 hc         1 A7V       0.032367
     79 H49         24.7180     7.7370   -24.2670 hc         1 A7V       0.032367
     80 H50         25.2190     8.0540   -22.5890 hc         1 A7V       0.032367
     81 O1          20.3830     8.0880   -11.4010 o          1 A7V      -0.929167
     82 Cl1         27.4940     2.1990   -17.1850 cl         1 A7V      -0.176000
     83 O06         26.3310     4.4990   -12.6480 o          1 A7V      -0.622100
@<TRIPOS>BOND
     1     1     4 1   
     2     1     7 1   
     3     1    11 1   
     4     1    81 1   
     5     2     3 1   
     6     2    14 1   
     7     2    36 1   
     8     2    37 1   
     9     3     5 1   
    10     3    38 1   
    11     4    12 1   
    12     5     8 1   
    13     5    83 2   
    14     6    15 1   
    15     6    20 1   
    16     6    39 1   
    17     8    10 1   
    18     8    13 1   
    19     8    40 1   
    20     9    21 1   
    21     9    22 1   
    22     9    41 1   
    23    10    12 1   
    24    10    17 1   
    25    10    19 1   
    26    12    42 1   
    27    12    43 1   
    28    13    44 1   
    29    14    15 1   
    30    14    45 1   
    31    14    46 1   
    32    15    16 2   
    33    17    47 1   
    34    17    48 1   
    35    17    49 1   
    36    18    22 2   
    37    19    50 1   
    38    19    51 1   
    39    19    52 1   
    40    20    21 1   
    41    20    53 1   
    42    20    54 1   
    43    21    55 1   
    44    21    56 1   
    45    22    23 1   
    46    23    24 2   
    47    23    57 1   
    48    24    25 1   
    49    24    82 1   
    50    25    26 1   
    51    25    58 1   
    52    25    59 1   
    53    26    27 1   
    54    26    60 1   
    55    26    61 1   
    56    27    28 1   
    57    27    62 1   
    58    27    63 1   
    59    28    29 1   
    60    28    64 1   
    61    28    65 1   
    62    29    30 1   
    63    29    66 1   
    64    29    67 1   
    65    30    31 1   
    66    30    68 1   
    67    30    69 1   
    68    31    32 1   
    69    31    70 1   
    70    31    71 1   
    71    32    33 1   
    72    32    72 1   
    73    32    73 1   
    74    33    34 1   
    75    33    74 1   
    76    33    75 1   
    77    34    35 1   
    78    34    76 1   
    79    34    77 1   
    80    35    78 1   
    81    35    79 1   
    82    35    80 1   
@<TRIPOS>SUBSTRUCTURE
     1 A7V         1 TEMP              0 ****  ****    0 ROOT
