@<TRIPOS>MOLECULE
A7W
   20    21     1     0     0
SMALL
No Charge or Current Charge


@<TRIPOS>ATOM
      1 C1           2.1450    -1.7320    -0.0350 ca         1 A7W      -0.039000
      2 C2           0.7560    -1.9210     0.0030 ca         1 A7W      -0.168000
      3 C3           2.6730    -0.4330    -0.0270 ca         1 A7W      -0.224000
      4 C4          -1.5030    -1.0300     0.0830 ca         1 A7W      -0.191000
      5 C5          -1.7780     1.3760     0.1300 ca         1 A7W       0.325900
      6 C6          -0.1110    -0.8140     0.0480 ca         1 A7W       0.007000
      7 C7           0.4020     0.5160     0.0580 ca         1 A7W       0.183000
      8 C8           1.8240     0.6830     0.0210 ca         1 A7W       0.350000
      9 C9          -2.3540     0.0840     0.1250 ca         1 A7W       0.097100
     10 N10         -0.4390     1.5950     0.0960 nb         1 A7W      -0.644000
     11 N11          2.4090     1.9330     0.0270 nv         1 A7W      -1.069000
     12 O12         -3.7130    -0.0910     0.1590 oh         1 A7W      -0.525100
     13 H1           2.8110    -2.5930    -0.0710 ha         1 A7W       0.109000
     14 H2           0.3540    -2.9310    -0.0040 ha         1 A7W       0.116000
     15 H3           3.7510    -0.2970    -0.0550 ha         1 A7W       0.115000
     16 H4          -1.9050    -2.0410     0.0770 ha         1 A7W       0.120000
     17 H5          -2.4110     2.2620     0.1610 h4         1 A7W       0.032100
     18 H111         3.3800     2.0340    -0.2600 hn         1 A7W       0.469000
     19 H112         1.7970     2.7390    -0.0960 hn         1 A7W       0.469000
     20 H12         -3.9070    -1.0540     0.1490 ho         1 A7W       0.467000
@<TRIPOS>BOND
     1     1     2 ar  
     2     1     3 ar  
     3     1    13 1   
     4     2     6 ar  
     5     2    14 1   
     6     3     8 ar  
     7     3    15 1   
     8     4     6 ar  
     9     4     9 ar  
    10     4    16 1   
    11     5     9 ar  
    12     5    10 ar  
    13     5    17 1   
    14     6     7 ar  
    15     7     8 ar  
    16     7    10 ar  
    17     8    11 1   
    18     9    12 1   
    19    11    18 1   
    20    11    19 1   
    21    12    20 1   
@<TRIPOS>SUBSTRUCTURE
     1 A7W         1 TEMP              0 ****  ****    0 ROOT
