@<TRIPOS>MOLECULE
A7W
   20    21     1     0     0
SMALL
abcg2


@<TRIPOS>ATOM
      1 C1           2.1470    -1.7320    -0.0400 ca         1 A7W      -0.039000
      2 C2           0.7980    -1.9750     0.0000 ca         1 A7W      -0.168000
      3 C3           2.6670    -0.4280    -0.0290 ca         1 A7W      -0.224000
      4 C4          -1.4970    -1.0380     0.0850 ca         1 A7W      -0.191000
      5 C5          -1.6880     1.3490     0.1190 ca         1 A7W       0.325900
      6 C6          -0.0930    -0.8810     0.0470 ca         1 A7W       0.007000
      7 C7           0.4140     0.4400     0.0560 ca         1 A7W       0.183000
      8 C8           1.8270     0.6700     0.0260 ca         1 A7W       0.350000
      9 C9          -2.3000     0.0700     0.1230 ca         1 A7W       0.097100
     10 N10         -0.3980     1.5180     0.0880 nb         1 A7W      -0.644000
     11 N11          2.2910     1.9520     0.0990 nv         1 A7W      -1.069000
     12 O12         -3.6420     0.0450     0.1630 oh         1 A7W      -0.525100
     13 H1           2.8400    -2.5630    -0.0820 ha         1 A7W       0.109000
     14 H2           0.4110    -2.9860    -0.0070 ha         1 A7W       0.116000
     15 H3           3.7400    -0.2820    -0.0590 ha         1 A7W       0.115000
     16 H4          -1.9220    -2.0370     0.0830 ha         1 A7W       0.120000
     17 H5          -2.3150     2.2360     0.1420 h4         1 A7W       0.032100
     18 H111         3.2280     2.1160    -0.2290 hn         1 A7W       0.469000
     19 H112         1.6360     2.6740    -0.1560 hn         1 A7W       0.469000
     20 H12         -3.9640    -0.8630     0.1620 ho         1 A7W       0.467000
@<TRIPOS>BOND
     1     1     2 ar  
     2     1     3 ar  
     3     1    13 1   
     4     2     6 ar  
     5     2    14 1   
     6     3     8 ar  
     7     3    15 1   
     8     4     6 ar  
     9     4     9 ar  
    10     4    16 1   
    11     5     9 ar  
    12     5    10 ar  
    13     5    17 1   
    14     6     7 ar  
    15     7     8 ar  
    16     7    10 ar  
    17     8    11 1   
    18     9    12 1   
    19    11    18 1   
    20    11    19 1   
    21    12    20 1   
@<TRIPOS>SUBSTRUCTURE
     1 A7W         1 TEMP              0 ****  ****    0 ROOT
