@<TRIPOS>MOLECULE
A7X
   35    37     1     0     0
SMALL
abcg2


@<TRIPOS>ATOM
      1 C10        -42.4070    -1.6240     4.4540 ca         1 A7X      -0.130800
      2 C12        -41.2190    -2.6080     2.5880 ca         1 A7X      -0.099000
      3 C15        -40.0020    -1.8700     4.5080 ca         1 A7X      -0.099000
      4 C16        -41.1820    -1.4570     5.1050 ca         1 A7X      -0.112000
      5 C13        -40.0000    -2.4630     3.2470 ca         1 A7X      -0.108600
      6 N          -45.6500    -0.8270     7.9570 n          1 A7X      -0.314000
      7 C          -45.4350    -0.6220     6.6240 c          1 A7X       0.560200
      8 O          -46.2020    -0.0380     5.8820 o          1 A7X      -0.555000
      9 C1         -46.8370    -0.3590     8.6290 c3         1 A7X       0.106300
     10 C11        -42.4000    -2.1810     3.1710 ca         1 A7X      -0.112000
     11 C2         -44.1080    -1.2290     6.2940 cc         1 A7X      -0.174400
     12 C3         -43.6220    -1.7980     7.5410 ca         1 A7X      -0.115800
     13 C4         -44.5930    -1.5320     8.5230 ca         1 A7X       0.097600
     14 C5         -44.4720    -1.9580     9.8270 ca         1 A7X      -0.230000
     15 C6         -43.3360    -2.7040    10.1880 ca         1 A7X       0.319000
     16 C7         -42.3740    -3.0040     9.2100 ca         1 A7X      -0.216000
     17 C8         -42.5180    -2.5570     7.9070 ca         1 A7X      -0.011000
     18 C9         -43.6740    -1.1820     5.0220 cf         1 A7X      -0.006200
     19 N1         -43.1550    -3.0930    11.4880 nv         1 A7X      -1.090000
     20 O1         -38.7950    -3.4470     1.4710 o          1 A7X      -0.714000
     21 O2         -37.6550    -2.7270     3.2500 o          1 A7X      -0.714000
     22 H1         -41.2400    -3.0530     1.6020 ha         1 A7X       0.131000
     23 H2         -39.0640    -1.7220     5.0250 ha         1 A7X       0.131000
     24 H3         -41.1490    -0.9690     6.0700 ha         1 A7X       0.094500
     25 H4         -46.8370    -0.7010     9.6590 h1         1 A7X       0.038367
     26 H5         -46.8830     0.7290     8.6310 h1         1 A7X       0.038367
     27 H6         -47.7320    -0.7470     8.1440 h1         1 A7X       0.038367
     28 H7         -43.3350    -2.2900     2.6340 ha         1 A7X       0.094500
     29 H8         -45.2280    -1.7410    10.5720 ha         1 A7X       0.108000
     30 H9         -41.5060    -3.5920     9.4820 ha         1 A7X       0.112000
     31 H10        -41.7600    -2.8170     7.1830 ha         1 A7X       0.139000
     32 H11        -44.3780    -0.7680     4.3040 ha         1 A7X       0.185000
     33 H12        -43.9750    -3.1350    12.0720 hn         1 A7X       0.449500
     34 H13        -42.5180    -3.8550    11.6490 hn         1 A7X       0.449500
     35 C14        -38.6970    -2.9220     2.5960 c          1 A7X       0.711600
@<TRIPOS>BOND
     1     1     4 ar  
     2     1    10 ar  
     3     1    18 1   
     4     2     5 ar  
     5     2    10 ar  
     6     2    22 1   
     7     3     4 ar  
     8     3     5 ar  
     9     3    23 1   
    10     4    24 1   
    11     5    35 1   
    12     6     7 1   
    13     6     9 1   
    14     6    13 1   
    15     7     8 2   
    16     7    11 1   
    17     9    25 1   
    18     9    26 1   
    19     9    27 1   
    20    10    28 1   
    21    11    12 1   
    22    11    18 2   
    23    12    13 ar  
    24    12    17 ar  
    25    13    14 ar  
    26    14    15 ar  
    27    14    29 1   
    28    15    16 ar  
    29    15    19 1   
    30    16    17 ar  
    31    16    30 1   
    32    17    31 1   
    33    18    32 1   
    34    19    33 1   
    35    19    34 1   
    36    20    35 1   
    37    21    35 1   
@<TRIPOS>SUBSTRUCTURE
     1 A7X         1 TEMP              0 ****  ****    0 ROOT
