@<TRIPOS>MOLECULE
A7X
   35    37     1     0     0
SMALL
No Charge or Current Charge


@<TRIPOS>ATOM
      1 C10        -42.5170    -1.9370     4.4210 ca         1 A7X      -0.130800
      2 C12        -41.0840    -2.4960     2.5190 ca         1 A7X      -0.099000
      3 C15        -40.0820    -1.8100     4.6190 ca         1 A7X      -0.099000
      4 C16        -41.3630    -1.6540     5.1770 ca         1 A7X      -0.112000
      5 C13        -39.9210    -2.2400     3.2820 ca         1 A7X      -0.108600
      6 N          -45.6760    -0.8220     7.9520 n          1 A7X      -0.314000
      7 C          -45.6180    -0.8500     6.5510 c          1 A7X       0.560200
      8 O          -46.4010    -0.3150     5.7760 o          1 A7X      -0.555000
      9 C1         -46.6060     0.0370     8.7050 c3         1 A7X       0.106300
     10 C11        -42.3630    -2.3370     3.0800 ca         1 A7X      -0.112000
     11 C2         -44.3800    -1.6100     6.2370 cc         1 A7X      -0.174400
     12 C3         -43.7960    -2.0180     7.5140 ca         1 A7X      -0.115800
     13 C4         -44.5660    -1.4800     8.5340 ca         1 A7X       0.097600
     14 C5         -44.3760    -1.8550     9.8700 ca         1 A7X      -0.230000
     15 C6         -43.3080    -2.7130    10.1720 ca         1 A7X       0.319000
     16 C7         -42.5050    -3.2450     9.1440 ca         1 A7X      -0.216000
     17 C8         -42.7630    -2.9270     7.7940 ca         1 A7X      -0.011000
     18 C9         -43.8780    -1.7640     4.9700 cf         1 A7X      -0.006200
     19 N1         -43.0730    -3.0700    11.4680 nv         1 A7X      -1.090000
     20 O1         -38.4440    -2.7770     1.5120 o          1 A7X      -0.714000
     21 O2         -37.5570    -2.1740     3.3730 o          1 A7X      -0.714000
     22 H1         -41.0000    -2.8180     1.4830 ha         1 A7X       0.131000
     23 H2         -39.2110    -1.5840     5.2310 ha         1 A7X       0.131000
     24 H3         -41.4490    -1.2800     6.1930 ha         1 A7X       0.094500
     25 H4         -47.0030    -0.5150     9.5660 h1         1 A7X       0.038367
     26 H5         -46.0750     0.9280     9.0610 h1         1 A7X       0.038367
     27 H6         -47.4440     0.3470     8.0680 h1         1 A7X       0.038367
     28 H7         -43.2390    -2.5410     2.4690 ha         1 A7X       0.094500
     29 H8         -45.0380    -1.4910    10.6500 ha         1 A7X       0.108000
     30 H9         -41.7020    -3.9370     9.3840 ha         1 A7X       0.112000
     31 H10        -42.1970    -3.4030     6.9980 ha         1 A7X       0.139000
     32 H11        -44.5910    -1.4520     4.2030 ha         1 A7X       0.185000
     33 H12        -43.7540    -2.8280    12.1850 hn         1 A7X       0.449500
     34 H13        -42.4190    -3.8220    11.6740 hn         1 A7X       0.449500
     35 C14        -38.5350    -2.4100     2.6760 c          1 A7X       0.711600
@<TRIPOS>BOND
     1     1     4 ar  
     2     1    10 ar  
     3     1    18 1   
     4     2     5 ar  
     5     2    10 ar  
     6     2    22 1   
     7     3     4 ar  
     8     3     5 ar  
     9     3    23 1   
    10     4    24 1   
    11     5    35 1   
    12     6     7 1   
    13     6     9 1   
    14     6    13 1   
    15     7     8 2   
    16     7    11 1   
    17     9    25 1   
    18     9    26 1   
    19     9    27 1   
    20    10    28 1   
    21    11    12 1   
    22    11    18 2   
    23    12    13 ar  
    24    12    17 ar  
    25    13    14 ar  
    26    14    15 ar  
    27    14    29 1   
    28    15    16 ar  
    29    15    19 1   
    30    16    17 ar  
    31    16    30 1   
    32    17    31 1   
    33    18    32 1   
    34    19    33 1   
    35    19    34 1   
    36    20    35 1   
    37    21    35 1   
@<TRIPOS>SUBSTRUCTURE
     1 A7X         1 TEMP              0 ****  ****    0 ROOT
