@<TRIPOS>MOLECULE
A7Y
   63    67     1     0     0
SMALL
bcc


@<TRIPOS>ATOM
      1 C2          -7.5610     0.8820     1.4170 ca         1 A7Y       0.029400
      2 C3          -8.0320    -0.2020     0.6960 ca         1 A7Y      -0.124000
      3 C41          4.6480     1.7810    -0.2970 cp         1 A7Y      -0.117500
      4 C42          5.9180     1.9190     0.2540 ca         1 A7Y      -0.122000
      5 C44          6.6610     3.0810     0.0590 ca         1 A7Y       0.132100
      6 C45          6.1270     4.1250    -0.6930 ca         1 A7Y      -0.204000
      7 C47          4.8560     3.9870    -1.2360 ca         1 A7Y      -0.099000
      8 C49          4.1150     2.8330    -1.0480 ca         1 A7Y      -0.150000
      9 C52          8.6810     4.2580     0.4600 c3         1 A7Y       0.125700
     10 C56          4.2100    -2.2920     2.1130 ca         1 A7Y      -0.162300
     11 C58          3.5900    -3.4770     2.3970 ca         1 A7Y      -0.121000
     12 C60          2.4290    -3.8640     1.6970 ca         1 A7Y      -0.122000
     13 C12         -4.7800    -1.9830    -0.1480 c3         1 A7Y       0.220100
     14 C16         -2.5060    -2.3230    -0.9270 c5         1 A7Y       0.146800
     15 C19         -1.4860    -1.5210    -1.7530 c5         1 A7Y       0.102700
     16 C21         -2.2910    -0.3060    -2.2670 c5         1 A7Y      -0.098400
     17 C24         -3.7300    -0.6230    -1.8800 c5         1 A7Y       0.157800
     18 C10         -6.2020     1.0630     1.6290 ca         1 A7Y      -0.124000
     19 C34          2.0710    -0.9500    -0.6070 ca         1 A7Y      -0.091600
     20 C35          2.5320    -1.8330     0.4010 ca         1 A7Y      -0.127300
     21 C36          3.6950    -1.4400     1.1080 ca         1 A7Y       0.407600
     22 C38          3.8930     0.5260    -0.0700 cp         1 A7Y       0.491800
     23 C39          2.7500     0.2090    -0.8470 ca         1 A7Y      -0.205300
     24 C5          -7.1210    -1.1140     0.1800 ca         1 A7Y      -0.109500
     25 C62          1.9090    -3.0600     0.7190 ca         1 A7Y      -0.111000
     26 C7          -5.7540    -0.9610     0.3800 ca         1 A7Y      -0.085300
     27 C8          -5.3080     0.1390     1.1090 ca         1 A7Y      -0.109500
     28 N15         -3.5730    -1.3800    -0.6520 n3         1 A7Y      -0.732600
     29 N37          4.3380    -0.2800     0.8610 nb         1 A7Y      -0.663000
     30 O33          1.1550    -1.8140    -2.5880 o          1 A7Y      -0.588100
     31 O51          7.8790     3.1070     0.6320 os         1 A7Y      -0.316900
     32 CL1         -8.6860     2.0360     2.0610 cl         1 A7Y      -0.114400
     33 H1          -9.0920    -0.3350     0.5280 ha         1 A7Y       0.147000
     34 H2           6.3410     1.1130     0.8400 ha         1 A7Y       0.167000
     35 H3           6.6780     5.0400    -0.8680 ha         1 A7Y       0.135000
     36 H4           4.4390     4.8010    -1.8130 ha         1 A7Y       0.130000
     37 H5           3.1250     2.7730    -1.4770 ha         1 A7Y       0.131000
     38 H6           8.9070     4.4450    -0.5930 h1         1 A7Y       0.040033
     39 H7           8.2120     5.1500     0.8820 h1         1 A7Y       0.040033
     40 H8           9.6120     4.0680     0.9890 h1         1 A7Y       0.040033
     41 H9           5.1020    -1.9820     2.6420 ha         1 A7Y       0.151000
     42 H10          3.9910    -4.1260     3.1650 ha         1 A7Y       0.136000
     43 H11          1.9490    -4.8040     1.9360 ha         1 A7Y       0.134000
     44 H12         -4.5080    -2.6600     0.6680 h1         1 A7Y       0.041700
     45 H13         -5.2810    -2.6060    -0.9070 h1         1 A7Y       0.041700
     46 H14         -2.8570    -3.1800    -1.5250 h1         1 A7Y       0.046700
     47 H15         -2.0850    -2.7270    -0.0030 h1         1 A7Y       0.046700
     48 H16         -1.1330    -2.1240    -2.5840 h1         1 A7Y       0.091700
     49 H17         -1.9610     0.6090    -1.7720 hc         1 A7Y       0.059700
     50 H18         -2.1670    -0.1590    -3.3390 hc         1 A7Y       0.059700
     51 H19         -4.3320     0.2730    -1.7230 h1         1 A7Y       0.043700
     52 H20         -4.2240    -1.2200    -2.6640 h1         1 A7Y       0.043700
     53 H21         -0.1460     0.5950     0.2230 h1         1 A7Y       0.050367
     54 H22         -1.5780    -0.3940     0.4870 h1         1 A7Y       0.050367
     55 H23         -0.0260    -0.9320     1.1100 h1         1 A7Y       0.050367
     56 H24         -5.8410     1.9150     2.1890 ha         1 A7Y       0.147000
     57 H25          2.4130     0.8710    -1.6320 ha         1 A7Y       0.150000
     58 H26         -7.4900    -1.9590    -0.3890 ha         1 A7Y       0.140500
     59 H27          1.0160    -3.3680     0.1900 ha         1 A7Y       0.139000
     60 H28         -4.2470     0.2820     1.2660 ha         1 A7Y       0.140500
     61 N27         -0.3100    -1.1430    -0.9800 n          1 A7Y      -0.462800
     62 C28         -0.5120    -0.4300     0.2750 c3         1 A7Y       0.077300
     63 C32          0.9160    -1.3370    -1.4870 c          1 A7Y       0.676700
@<TRIPOS>BOND
     1     1     2 ar  
     2     1    18 ar  
     3     1    32 1   
     4     2    24 ar  
     5     2    33 1   
     6     3     4 ar  
     7     3     8 ar  
     8     3    22 1   
     9     4     5 ar  
    10     4    34 1   
    11     5     6 ar  
    12     5    31 1   
    13     6     7 ar  
    14     6    35 1   
    15     7     8 ar  
    16     7    36 1   
    17     8    37 1   
    18     9    31 1   
    19     9    38 1   
    20     9    39 1   
    21     9    40 1   
    22    10    11 ar  
    23    10    21 ar  
    24    10    41 1   
    25    11    12 ar  
    26    11    42 1   
    27    12    25 ar  
    28    12    43 1   
    29    13    26 1   
    30    13    28 1   
    31    13    44 1   
    32    13    45 1   
    33    14    15 1   
    34    14    28 1   
    35    14    46 1   
    36    14    47 1   
    37    15    16 1   
    38    15    48 1   
    39    15    61 1   
    40    16    17 1   
    41    16    49 1   
    42    16    50 1   
    43    17    28 1   
    44    17    51 1   
    45    17    52 1   
    46    18    27 ar  
    47    18    56 1   
    48    19    20 ar  
    49    19    23 ar  
    50    19    63 1   
    51    20    21 ar  
    52    20    25 ar  
    53    21    29 ar  
    54    22    23 ar  
    55    22    29 ar  
    56    23    57 1   
    57    24    26 ar  
    58    24    58 1   
    59    25    59 1   
    60    26    27 ar  
    61    27    60 1   
    62    30    63 2   
    63    53    62 1   
    64    54    62 1   
    65    55    62 1   
    66    61    62 1   
    67    61    63 1   
@<TRIPOS>SUBSTRUCTURE
     1 A7Y         1 TEMP              0 ****  ****    0 ROOT
