@<TRIPOS>MOLECULE
A7Y
   63    67     1     0     0
SMALL
No Charge or Current Charge


@<TRIPOS>ATOM
      1 C2          -7.7990     0.9990     1.0590 ca         1 A7Y       0.121000
      2 C3          -8.0630     0.0850     0.0260 ca         1 A7Y      -0.106000
      3 C41          4.7680     1.9130    -0.3070 cp         1 A7Y      -0.117500
      4 C42          6.1280     1.9890     0.1050 ca         1 A7Y      -0.104000
      5 C44          6.8950     3.1520    -0.0770 ca         1 A7Y       0.132100
      6 C45          6.3100     4.2840    -0.6810 ca         1 A7Y      -0.186000
      7 C47          4.9690     4.2410    -1.0910 ca         1 A7Y      -0.081000
      8 C49          4.2080     3.0740    -0.9070 ca         1 A7Y      -0.132000
      9 C52          9.0770     4.2710     0.2080 c3         1 A7Y       0.148900
     10 C56          4.2060    -2.2320     2.0660 ca         1 A7Y      -0.079000
     11 C58          3.5740    -3.4610     2.3160 ca         1 A7Y      -0.103000
     12 C60          2.4510    -3.8320     1.5650 ca         1 A7Y      -0.104000
     13 C12         -4.8940    -2.0860     0.1070 c3         1 A7Y       0.220100
     14 C16         -2.5870    -2.5270    -0.7600 c5         1 A7Y       0.146800
     15 C19         -1.5610    -1.7360    -1.6490 c5         1 A7Y       0.102700
     16 C21         -2.3410    -0.4380    -2.0480 c5         1 A7Y      -0.098400
     17 C24         -3.8110    -0.8350    -1.7790 c5         1 A7Y       0.157800
     18 C10         -6.5990     0.9160     1.7840 ca         1 A7Y      -0.106000
     19 C34          2.0790    -0.8230    -0.6490 ca         1 A7Y      -0.091600
     20 C35          2.5650    -1.7170     0.3390 ca         1 A7Y      -0.062000
     21 C36          3.7230    -1.3530     1.0780 ca         1 A7Y       0.277000
     22 C38          3.9580     0.6550    -0.1060 cp         1 A7Y       0.426500
     23 C39          2.8130     0.3560    -0.8800 ca         1 A7Y      -0.122000
     24 C5          -7.1240    -0.9160    -0.2840 ca         1 A7Y      -0.091500
     25 C62          1.9510    -2.9700     0.5770 ca         1 A7Y      -0.093000
     26 C7          -5.9180    -1.0060     0.4400 ca         1 A7Y      -0.085300
     27 C8          -5.6600    -0.0850     1.4740 ca         1 A7Y      -0.091500
     28 N15         -3.6580    -1.5360    -0.4880 n3         1 A7Y      -0.732600
     29 N37          4.3830    -0.1950     0.8550 nb         1 A7Y      -0.663000
     30 O33          0.9270    -1.1290    -2.7020 o          1 A7Y      -0.588100
     31 O51          8.2080     3.1330     0.3480 os         1 A7Y      -0.340100
     32 Cl1         -8.9720     2.2510     1.4450 cl         1 A7Y      -0.206000
     33 H1          -8.9920     0.1530    -0.5340 ha         1 A7Y       0.129000
     34 H2           6.6050     1.1280     0.5680 ha         1 A7Y       0.149000
     35 H3           6.8740     5.1990    -0.8360 ha         1 A7Y       0.117000
     36 H4           4.5140     5.1160    -1.5500 ha         1 A7Y       0.112000
     37 H5           3.1680     3.0870    -1.2210 ha         1 A7Y       0.113000
     38 H6           9.1920     4.5450    -0.8490 h1         1 A7Y       0.040033
     39 H7           8.6810     5.1350     0.7560 h1         1 A7Y       0.040033
     40 H8          10.0720     4.0410     0.6090 h1         1 A7Y       0.040033
     41 H9           5.0860    -1.9560     2.6400 ha         1 A7Y       0.133000
     42 H10          3.9640    -4.1280     3.0820 ha         1 A7Y       0.118000
     43 H11          1.9690    -4.7910     1.7460 ha         1 A7Y       0.116000
     44 H12         -4.6490    -2.6240     1.0330 h1         1 A7Y       0.041700
     45 H13         -5.3460    -2.8180    -0.5770 h1         1 A7Y       0.041700
     46 H14         -2.9860    -3.3790    -1.3280 h1         1 A7Y       0.046700
     47 H15         -2.1420    -2.9330     0.1590 h1         1 A7Y       0.046700
     48 H16         -1.2650    -2.3380    -2.5200 h1         1 A7Y       0.091700
     49 H17         -2.0660     0.4290    -1.4360 hc         1 A7Y       0.059700
     50 H18         -2.1720    -0.1580    -3.0930 hc         1 A7Y       0.059700
     51 H19         -4.4670     0.0440    -1.7100 h1         1 A7Y       0.043700
     52 H20         -4.2040    -1.5010    -2.5620 h1         1 A7Y       0.043700
     53 H21          0.1370     0.0130     0.7950 h1         1 A7Y       0.050367
     54 H22         -1.5610    -0.4830     0.7770 h1         1 A7Y       0.050367
     55 H23         -0.3140    -1.6470     1.2890 h1         1 A7Y       0.050367
     56 H24         -6.3950     1.6260     2.5810 ha         1 A7Y       0.129000
     57 H25          2.4890     1.0380    -1.6590 ha         1 A7Y       0.132000
     58 H26         -7.3340    -1.6190    -1.0880 ha         1 A7Y       0.122500
     59 H27          1.0900    -3.2950    -0.0000 ha         1 A7Y       0.121000
     60 H28         -4.7280    -0.1440     2.0330 ha         1 A7Y       0.122500
     61 N27         -0.3910    -1.3010    -0.8140 n          1 A7Y      -0.395800
     62 C28         -0.5370    -0.8290     0.5930 c3         1 A7Y       0.077300
     63 C32          0.8420    -1.0780    -1.4800 c          1 A7Y       0.609700
@<TRIPOS>BOND
     1     1     2 ar  
     2     1    18 ar  
     3     1    32 1   
     4     2    24 ar  
     5     2    33 1   
     6     3     4 ar  
     7     3     8 ar  
     8     3    22 1   
     9     4     5 ar  
    10     4    34 1   
    11     5     6 ar  
    12     5    31 1   
    13     6     7 ar  
    14     6    35 1   
    15     7     8 ar  
    16     7    36 1   
    17     8    37 1   
    18     9    31 1   
    19     9    38 1   
    20     9    39 1   
    21     9    40 1   
    22    10    11 ar  
    23    10    21 ar  
    24    10    41 1   
    25    11    12 ar  
    26    11    42 1   
    27    12    25 ar  
    28    12    43 1   
    29    13    26 1   
    30    13    28 1   
    31    13    44 1   
    32    13    45 1   
    33    14    15 1   
    34    14    28 1   
    35    14    46 1   
    36    14    47 1   
    37    15    16 1   
    38    15    48 1   
    39    15    61 1   
    40    16    17 1   
    41    16    49 1   
    42    16    50 1   
    43    17    28 1   
    44    17    51 1   
    45    17    52 1   
    46    18    27 ar  
    47    18    56 1   
    48    19    20 ar  
    49    19    23 ar  
    50    19    63 1   
    51    20    21 ar  
    52    20    25 ar  
    53    21    29 ar  
    54    22    23 ar  
    55    22    29 ar  
    56    23    57 1   
    57    24    26 ar  
    58    24    58 1   
    59    25    59 1   
    60    26    27 ar  
    61    27    60 1   
    62    30    63 2   
    63    53    62 1   
    64    54    62 1   
    65    55    62 1   
    66    61    62 1   
    67    61    63 1   
@<TRIPOS>SUBSTRUCTURE
     1 A7Y         1 TEMP              0 ****  ****    0 ROOT
