@<TRIPOS>MOLECULE
A7Z
   42    44     1     0     0
SMALL
bcc


@<TRIPOS>ATOM
      1 S           -4.6150     1.4370    -0.0260 s6         1 A7Z       1.727200
      2 O2          -4.0920     1.4110    -1.3550 o          1 A7Z      -0.612300
      3 O3          -5.9960     1.6070     0.2800 o          1 A7Z      -0.612300
      4 O1          -4.1190     0.1970     0.8240 os         1 A7Z      -0.481800
      5 C16         -2.8040    -0.2610     0.6630 ca         1 A7Z       0.108100
      6 C15         -1.8230     0.2270     1.5060 ca         1 A7Z      -0.125000
      7 C14         -0.5370    -0.2700     1.3770 ca         1 A7Z      -0.095000
      8 C23         -2.5450    -1.2220    -0.2940 ca         1 A7Z      -0.125000
      9 C24         -1.2520    -1.7070    -0.4130 ca         1 A7Z      -0.095000
     10 C13         -0.2350    -1.2340     0.4160 ca         1 A7Z      -0.003000
     11 C8           1.1450    -1.7110     0.2910 cc         1 A7Z      -0.166600
     12 NZ           1.5160    -3.0170     0.4990 na         1 A7Z      -0.183900
     13 C9           0.6520    -4.1410     0.7970 c3         1 A7Z       0.133400
     14 C10          0.1970    -4.8290    -0.4070 c1         1 A7Z      -0.192100
     15 C11         -0.1730    -5.4010    -1.3950 c1         1 A7Z      -0.098500
     16 C12          2.8600    -3.0740     0.3890 cc         1 A7Z       0.412400
     17 N1           3.3760    -1.9070     0.1270 nd         1 A7Z      -0.662000
     18 C7           2.3230    -1.0370     0.0560 cd         1 A7Z       0.387800
     19 C3           2.5280     0.3850    -0.2300 ca         1 A7Z      -0.080500
     20 C2           3.7290     0.9820     0.1340 ca         1 A7Z      -0.134000
     21 C4           1.5560     1.1530    -0.8800 ca         1 A7Z      -0.157000
     22 C5           1.7950     2.4910    -1.1310 ca         1 A7Z      -0.096000
     23 C6           2.9900     3.0970    -0.7590 ca         1 A7Z      -0.212000
     24 C1           3.9660     2.3320    -0.1250 ca         1 A7Z       0.133100
     25 OZ           5.1610     2.8080     0.2770 os         1 A7Z      -0.317900
     26 CZ           5.4610     4.1670     0.0340 c3         1 A7Z       0.126700
     27 H3          -2.0510     0.9620     2.2660 ha         1 A7Z       0.157500
     28 H4           0.2400     0.0960     2.0340 ha         1 A7Z       0.154000
     29 H5          -3.3320    -1.5940    -0.9370 ha         1 A7Z       0.157500
     30 H6          -1.0390    -2.4440    -1.1760 ha         1 A7Z       0.154000
     31 H7           1.1990    -4.8340     1.4370 h1         1 A7Z       0.080700
     32 H8          -0.2030    -3.7910     1.3770 h1         1 A7Z       0.080700
     33 H9          -0.5030    -5.9080    -2.2730 ha         1 A7Z       0.174500
     34 H10          3.4080    -3.9970     0.5140 h5         1 A7Z       0.060100
     35 H11          4.4940     0.3990     0.6320 ha         1 A7Z       0.161000
     36 H12          0.6270     0.7060    -1.2050 ha         1 A7Z       0.135000
     37 H13          1.0430     3.0820    -1.6380 ha         1 A7Z       0.130000
     38 H14          3.1400     4.1460    -0.9760 ha         1 A7Z       0.134000
     39 H15          5.4690     4.4000    -1.0350 h1         1 A7Z       0.039367
     40 H16          4.7590     4.8380     0.5340 h1         1 A7Z       0.039367
     41 H17          6.4560     4.3410     0.4360 h1         1 A7Z       0.039367
     42 F1          -3.8250     2.5820     0.7340 f          1 A7Z      -0.277900
@<TRIPOS>BOND
     1     1     2 2   
     2     1     3 2   
     3     1     4 1   
     4     1    42 1   
     5     4     5 1   
     6     5     6 ar  
     7     5     8 ar  
     8     6     7 ar  
     9     6    27 1   
    10     7    10 ar  
    11     7    28 1   
    12     8     9 ar  
    13     8    29 1   
    14     9    10 ar  
    15     9    30 1   
    16    10    11 1   
    17    11    12 1   
    18    11    18 2   
    19    12    13 1   
    20    12    16 1   
    21    13    14 1   
    22    13    31 1   
    23    13    32 1   
    24    14    15 3   
    25    15    33 1   
    26    16    17 2   
    27    16    34 1   
    28    17    18 1   
    29    18    19 1   
    30    19    20 ar  
    31    19    21 ar  
    32    20    24 ar  
    33    20    35 1   
    34    21    22 ar  
    35    21    36 1   
    36    22    23 ar  
    37    22    37 1   
    38    23    24 ar  
    39    23    38 1   
    40    24    25 1   
    41    25    26 1   
    42    26    39 1   
    43    26    40 1   
    44    26    41 1   
@<TRIPOS>SUBSTRUCTURE
     1 A7Z         1 TEMP              0 ****  ****    0 ROOT
