@<TRIPOS>MOLECULE
A7Z
   42    44     1     0     0
SMALL
No Charge or Current Charge


@<TRIPOS>ATOM
      1 S           -4.5130     1.6790    -0.0210 s6         1 A7Z       1.585600
      2 O2          -3.7990     1.7780    -1.3050 o          1 A7Z      -0.541500
      3 O3          -5.9710     1.8780     0.0290 o          1 A7Z      -0.541500
      4 O1          -4.1670     0.2130     0.6610 os         1 A7Z      -0.481800
      5 C16         -2.8820    -0.2590     0.5850 ca         1 A7Z       0.108100
      6 C15         -1.9090     0.1840     1.4970 ca         1 A7Z      -0.107000
      7 C14         -0.5980    -0.3200     1.4240 ca         1 A7Z      -0.077000
      8 C23         -2.5530    -1.2240    -0.3810 ca         1 A7Z      -0.107000
      9 C24         -1.2420    -1.7270    -0.4540 ca         1 A7Z      -0.077000
     10 C13         -0.2550    -1.2700     0.4410 ca         1 A7Z      -0.003000
     11 C8           1.1030    -1.8020     0.3750 cc         1 A7Z      -0.152000
     12 NZ           1.4870    -3.1160     0.5280 na         1 A7Z      -0.162500
     13 C9           0.6200    -4.2830     0.7520 c3         1 A7Z       0.162700
     14 C10          0.3530    -5.0440    -0.4770 c1         1 A7Z      -0.192100
     15 C11          0.1340    -5.6450    -1.5060 c1         1 A7Z      -0.186000
     16 C12          2.8630    -3.1290     0.4880 cc         1 A7Z       0.412400
     17 N1           3.3510    -1.9080     0.3140 nd         1 A7Z      -0.662000
     18 C7           2.2600    -1.0560     0.2430 cd         1 A7Z       0.322500
     19 C3           2.4450     0.3940    -0.0490 ca         1 A7Z      -0.080500
     20 C2           3.7220     0.9810     0.1160 ca         1 A7Z      -0.116000
     21 C4           1.4110     1.2070    -0.5720 ca         1 A7Z      -0.139000
     22 C5           1.6330     2.5630    -0.8630 ca         1 A7Z      -0.078000
     23 C6           2.8970     3.1340    -0.6570 ca         1 A7Z      -0.194000
     24 C1           3.9520     2.3360    -0.1710 ca         1 A7Z       0.133100
     25 OZ           5.2230     2.8340     0.0370 os         1 A7Z      -0.341100
     26 CZ           5.5630     4.2070    -0.2270 c3         1 A7Z       0.149900
     27 H3          -2.1660     0.9100     2.2650 ha         1 A7Z       0.139500
     28 H4           0.1530     0.0240     2.1310 ha         1 A7Z       0.136000
     29 H5          -3.3110    -1.5810    -1.0730 ha         1 A7Z       0.139500
     30 H6          -0.9890    -2.4660    -1.2100 ha         1 A7Z       0.136000
     31 H7           1.1000    -4.9450     1.4850 h1         1 A7Z       0.080700
     32 H8          -0.3310    -3.9480     1.1830 h1         1 A7Z       0.080700
     33 H9          -0.0480    -6.1740    -2.4210 ha         1 A7Z       0.262000
     34 H10          3.4380    -4.0430     0.5910 h5         1 A7Z       0.060100
     35 H11          4.5530     0.3880     0.4900 ha         1 A7Z       0.143000
     36 H12          0.4310     0.7980    -0.7920 ha         1 A7Z       0.117000
     37 H13          0.8220     3.1700    -1.2610 ha         1 A7Z       0.112000
     38 H14          3.0400     4.1850    -0.8920 ha         1 A7Z       0.116000
     39 H15          5.4010     4.4530    -1.2840 h1         1 A7Z       0.039367
     40 H16          4.9570     4.8840     0.3900 h1         1 A7Z       0.039367
     41 H17          6.6190     4.3890     0.0070 h1         1 A7Z       0.039367
     42 F1          -3.8520     2.8180     0.9620 f          1 A7Z      -0.277900
@<TRIPOS>BOND
     1     1     2 2   
     2     1     3 2   
     3     1     4 1   
     4     1    42 1   
     5     4     5 1   
     6     5     6 ar  
     7     5     8 ar  
     8     6     7 ar  
     9     6    27 1   
    10     7    10 ar  
    11     7    28 1   
    12     8     9 ar  
    13     8    29 1   
    14     9    10 ar  
    15     9    30 1   
    16    10    11 1   
    17    11    12 1   
    18    11    18 2   
    19    12    13 1   
    20    12    16 1   
    21    13    14 1   
    22    13    31 1   
    23    13    32 1   
    24    14    15 3   
    25    15    33 1   
    26    16    17 2   
    27    16    34 1   
    28    17    18 1   
    29    18    19 1   
    30    19    20 ar  
    31    19    21 ar  
    32    20    24 ar  
    33    20    35 1   
    34    21    22 ar  
    35    21    36 1   
    36    22    23 ar  
    37    22    37 1   
    38    23    24 ar  
    39    23    38 1   
    40    24    25 1   
    41    25    26 1   
    42    26    39 1   
    43    26    40 1   
    44    26    41 1   
@<TRIPOS>SUBSTRUCTURE
     1 A7Z         1 TEMP              0 ****  ****    0 ROOT
