@<TRIPOS>MOLECULE
A80
   50    52     1     0     0
SMALL
bcc


@<TRIPOS>ATOM
      1 C1          -3.8460    -1.7350     0.3060 c6         1 A80       0.001300
      2 C2          -5.3220    -1.4010     0.5400 c6         1 A80      -0.065400
      3 C3          -5.8430    -0.3530    -0.4220 c6         1 A80      -0.065400
      4 C4          -5.1300     0.9930    -0.2560 c6         1 A80       0.009300
      5 C5          -3.6250     0.7840    -0.1690 ca         1 A80      -0.103300
      6 C6          -2.7770     1.8800    -0.3320 ca         1 A80      -0.106000
      7 C7          -1.3980     1.7940    -0.2740 ca         1 A80      -0.155000
      8 C8          -0.8140     0.5490    -0.0420 ca         1 A80       0.090600
      9 C9          -1.6470    -0.5490     0.1430 ca         1 A80      -0.196000
     10 C10         -3.0370    -0.4600     0.0990 ca         1 A80      -0.031300
     11 N11          0.5650     0.3080     0.0020 ns         1 A80      -0.473100
     12 C12          1.5900     1.1940    -0.0210 c          1 A80       0.695700
     13 C13          2.9490     0.5760    -0.0310 ca         1 A80      -0.196600
     14 C14          4.0020     1.2860     0.5430 ca         1 A80      -0.120000
     15 C15          5.2820     0.7580     0.5480 ca         1 A80      -0.117000
     16 C16          5.5510    -0.4750    -0.0410 ca         1 A80      -0.105600
     17 C17          4.5010    -1.1670    -0.6360 ca         1 A80      -0.117000
     18 C18          3.2130    -0.6550    -0.6290 ca         1 A80      -0.120000
     19 C19          6.9650    -1.0500    -0.0380 c          1 A80       0.921200
     20 C20         -3.7020    -2.6200    -0.9400 c3         1 A80      -0.080600
     21 C21         -3.3480    -2.5190     1.5260 c3         1 A80      -0.080600
     22 C22         -5.5000     1.8700    -1.4570 c3         1 A80      -0.079600
     23 C23         -5.6120     1.6850     1.0280 c3         1 A80      -0.079600
     24 O24          1.4460     2.4060    -0.0210 o          1 A80      -0.605100
     25 O25          7.1220    -2.1390    -0.6220 o          1 A80      -0.818300
     26 O26          7.8340    -0.3800     0.5490 o          1 A80      -0.818300
     27 H2          -5.9100    -2.3190     0.4570 hc         1 A80       0.037700
     28 H21         -5.4590    -1.0550     1.5690 hc         1 A80       0.037700
     29 H3          -5.7250    -0.7010    -1.4540 hc         1 A80       0.037700
     30 H4          -6.9160    -0.2030    -0.2750 hc         1 A80       0.037700
     31 H6          -3.2030     2.8580    -0.5180 ha         1 A80       0.122000
     32 H7          -0.8020     2.6810    -0.4150 ha         1 A80       0.167000
     33 H9          -1.1860    -1.5130     0.3270 ha         1 A80       0.126000
     34 H11          0.8130    -0.6610     0.1280 hn         1 A80       0.323500
     35 H14          3.8140     2.2480     1.0010 ha         1 A80       0.115500
     36 H15          6.0870     1.3110     1.0130 ha         1 A80       0.151000
     37 H17          4.6940    -2.1170    -1.1160 ha         1 A80       0.151000
     38 H18          2.4280    -1.2150    -1.1230 ha         1 A80       0.115500
     39 H201        -4.0800    -2.1260    -1.8360 hc         1 A80       0.033700
     40 H202        -2.6570    -2.8760    -1.1240 hc         1 A80       0.033700
     41 H203        -4.2560    -3.5530    -0.8110 hc         1 A80       0.033700
     42 H211        -4.0080    -3.3690     1.7120 hc         1 A80       0.033700
     43 H212        -2.3430    -2.9200     1.3900 hc         1 A80       0.033700
     44 H213        -3.3430    -1.8970     2.4230 hc         1 A80       0.033700
     45 H221        -6.5850     1.9050    -1.5690 hc         1 A80       0.031867
     46 H222        -5.1560     2.9000    -1.3510 hc         1 A80       0.031867
     47 H223        -5.0830     1.4700    -2.3830 hc         1 A80       0.031867
     48 H231        -5.4090     1.0830     1.9150 hc         1 A80       0.031867
     49 H232        -5.1160     2.6460     1.1680 hc         1 A80       0.031867
     50 H233        -6.6880     1.8680     0.9850 hc         1 A80       0.031867
@<TRIPOS>BOND
     1     1     2 1   
     2     1    10 1   
     3     1    20 1   
     4     1    21 1   
     5     2     3 1   
     6     2    27 1   
     7     2    28 1   
     8     3     4 1   
     9     3    29 1   
    10     3    30 1   
    11     4     5 1   
    12     4    22 1   
    13     4    23 1   
    14     5     6 ar  
    15     5    10 ar  
    16     6     7 ar  
    17     6    31 1   
    18     7     8 ar  
    19     7    32 1   
    20     8     9 ar  
    21     8    11 1   
    22     9    10 ar  
    23     9    33 1   
    24    11    12 1   
    25    11    34 1   
    26    12    13 1   
    27    12    24 2   
    28    13    14 ar  
    29    13    18 ar  
    30    14    15 ar  
    31    14    35 1   
    32    15    16 ar  
    33    15    36 1   
    34    16    17 ar  
    35    16    19 1   
    36    17    18 ar  
    37    17    37 1   
    38    18    38 1   
    39    19    25 1   
    40    19    26 1   
    41    20    39 1   
    42    20    40 1   
    43    20    41 1   
    44    21    42 1   
    45    21    43 1   
    46    21    44 1   
    47    22    45 1   
    48    22    46 1   
    49    22    47 1   
    50    23    48 1   
    51    23    49 1   
    52    23    50 1   
@<TRIPOS>SUBSTRUCTURE
     1 A80         1 TEMP              0 ****  ****    0 ROOT
