@<TRIPOS>MOLECULE
A80
   50    52     1     0     0
SMALL
No Charge or Current Charge


@<TRIPOS>ATOM
      1 C1          -3.8730    -1.7720     0.1150 c6         1 A80       0.001300
      2 C2          -5.3710    -1.4850     0.4170 c6         1 A80      -0.065400
      3 C3          -5.9280    -0.3390    -0.4450 c6         1 A80      -0.065400
      4 C4          -5.2060     1.0090    -0.1650 c6         1 A80       0.009300
      5 C5          -3.6460     0.8150    -0.1130 ca         1 A80      -0.103300
      6 C6          -2.8220     1.9590    -0.1790 ca         1 A80      -0.088000
      7 C7          -1.4240     1.8550    -0.1500 ca         1 A80      -0.137000
      8 C8          -0.8110     0.5930    -0.0590 ca         1 A80      -0.002000
      9 C9          -1.6240    -0.5480     0.0260 ca         1 A80      -0.178000
     10 C10         -3.0370    -0.4650     0.0220 ca         1 A80      -0.031300
     11 N11          0.5980     0.3960    -0.0370 ns         1 A80      -0.147000
     12 C12          1.6740     1.2680    -0.1630 c          1 A80       0.628700
     13 C13          3.0510     0.6290    -0.0650 ca         1 A80      -0.196600
     14 C14          4.2070     1.4330    -0.1840 ca         1 A80      -0.102000
     15 C15          5.4930     0.8730    -0.0970 ca         1 A80      -0.099000
     16 C16          5.6670    -0.5130     0.1110 ca         1 A80      -0.105600
     17 C17          4.5130    -1.3200     0.2310 ca         1 A80      -0.099000
     18 C18          3.2260    -0.7610     0.1450 ca         1 A80      -0.102000
     19 C19          7.0600    -1.1210     0.2050 c          1 A80       0.710600
     20 C20         -3.7280    -2.5470    -1.2330 c3         1 A80      -0.080600
     21 C21         -3.3380    -2.7140     1.2430 c3         1 A80      -0.080600
     22 C22         -5.7080     2.0410    -1.2590 c3         1 A80      -0.079600
     23 C23         -5.6540     1.5890     1.2140 c3         1 A80      -0.079600
     24 O24          1.5470     2.4740    -0.3460 o          1 A80      -0.605100
     25 O25          7.1630    -2.3270     0.3860 o          1 A80      -0.713000
     26 O26          8.0310    -0.3830     0.0950 o          1 A80      -0.713000
     27 H2          -5.9700    -2.3910     0.2500 hc         1 A80       0.037700
     28 H21         -5.5020    -1.2420     1.4800 hc         1 A80       0.037700
     29 H3          -5.8340    -0.6000    -1.5080 hc         1 A80       0.037700
     30 H4          -7.0060    -0.2350    -0.2610 hc         1 A80       0.037700
     31 H6          -3.2620     2.9500    -0.2500 ha         1 A80       0.104000
     32 H7          -0.8410     2.7680    -0.2020 ha         1 A80       0.149000
     33 H9          -1.1390    -1.5180     0.0870 ha         1 A80       0.108000
     34 H11          0.8670    -0.5680     0.0980 hn         1 A80       0.157000
     35 H14          4.1150     2.5060    -0.3450 ha         1 A80       0.097500
     36 H15          6.3580     1.5260    -0.1940 ha         1 A80       0.133000
     37 H17          4.6110    -2.3910     0.3920 ha         1 A80       0.133000
     38 H18          2.3750    -1.4300     0.2440 ha         1 A80       0.097500
     39 H201        -4.0400    -1.9350    -2.0870 hc         1 A80       0.033700
     40 H202        -2.6890    -2.8440    -1.4170 hc         1 A80       0.033700
     41 H203        -4.3350    -3.4600    -1.2400 hc         1 A80       0.033700
     42 H211        -3.9950    -3.5810     1.3800 hc         1 A80       0.033700
     43 H212        -2.3390    -3.1090     1.0280 hc         1 A80       0.033700
     44 H213        -3.2860    -2.1880     2.2040 hc         1 A80       0.033700
     45 H221        -6.8040     2.0820    -1.2970 hc         1 A80       0.031867
     46 H222        -5.3570     3.0610    -1.0630 hc         1 A80       0.031867
     47 H223        -5.3540     1.7580    -2.2570 hc         1 A80       0.031867
     48 H231        -5.3170     0.9640     2.0490 hc         1 A80       0.031867
     49 H232        -5.2390     2.5900     1.3800 hc         1 A80       0.031867
     50 H233        -6.7460     1.6730     1.2810 hc         1 A80       0.031867
@<TRIPOS>BOND
     1     1     2 1   
     2     1    10 1   
     3     1    20 1   
     4     1    21 1   
     5     2     3 1   
     6     2    27 1   
     7     2    28 1   
     8     3     4 1   
     9     3    29 1   
    10     3    30 1   
    11     4     5 1   
    12     4    22 1   
    13     4    23 1   
    14     5     6 ar  
    15     5    10 ar  
    16     6     7 ar  
    17     6    31 1   
    18     7     8 ar  
    19     7    32 1   
    20     8     9 ar  
    21     8    11 1   
    22     9    10 ar  
    23     9    33 1   
    24    11    12 1   
    25    11    34 1   
    26    12    13 1   
    27    12    24 2   
    28    13    14 ar  
    29    13    18 ar  
    30    14    15 ar  
    31    14    35 1   
    32    15    16 ar  
    33    15    36 1   
    34    16    17 ar  
    35    16    19 1   
    36    17    18 ar  
    37    17    37 1   
    38    18    38 1   
    39    19    25 1   
    40    19    26 1   
    41    20    39 1   
    42    20    40 1   
    43    20    41 1   
    44    21    42 1   
    45    21    43 1   
    46    21    44 1   
    47    22    45 1   
    48    22    46 1   
    49    22    47 1   
    50    23    48 1   
    51    23    49 1   
    52    23    50 1   
@<TRIPOS>SUBSTRUCTURE
     1 A80         1 TEMP              0 ****  ****    0 ROOT
