@<TRIPOS>MOLECULE
A81
   37    41     1     0     0
SMALL
No Charge or Current Charge


@<TRIPOS>ATOM
      1 C10         -3.0500     0.5570     0.6910 cc         1 A81       0.463900
      2 C20          2.4700    -0.5980    -0.2630 cc         1 A81      -0.219000
      3 C21          2.9680     0.7530    -0.0300 cc         1 A81       0.469900
      4 O01         -0.3710     1.9880    -0.4740 o          1 A81      -0.396500
      5 O03          0.1960     1.4900     1.5790 o          1 A81      -0.396500
      6 C04         -0.0840    -0.2010     0.0800 cd         1 A81      -0.302200
      7 C05          1.0540    -0.9360    -0.2100 cc         1 A81       0.025000
      8 N06          0.5130    -2.1710    -0.4930 na         1 A81       0.017800
      9 N07         -0.8440    -2.2890    -0.4260 nd         1 A81      -0.509800
     10 C08         -1.1690    -1.0580    -0.0590 cc         1 A81       0.404500
     11 C09         -2.5760    -0.7180     0.1660 cc         1 A81      -0.290500
     12 N11         -4.3140     0.9260     0.8770 nd         1 A81      -0.653000
     13 C12         -5.1170    -0.1300     0.5360 cd         1 A81       0.504500
     14 N13         -4.8290    -1.4050     0.1200 na         1 A81      -0.047800
     15 C14         -3.5030    -1.7250    -0.1490 cd         1 A81       0.017000
     16 N15         -5.9640    -2.1460    -0.1900 ns         1 A81      -0.400200
     17 C16         -7.0450    -1.3550     0.1160 c          1 A81       0.585200
     18 O17         -8.2150    -1.6950     0.0710 o          1 A81      -0.503000
     19 C18         -6.4840    -0.0610     0.5410 cc         1 A81      -0.283500
     20 Br2         -7.6050     1.3790     1.0320 br         1 A81       0.013300
     21 N22          4.2330     1.1600    -0.0900 nd         1 A81      -0.644000
     22 C23          5.0100     0.0650    -0.3730 cd         1 A81       0.498500
     23 N24          4.7010    -1.2620    -0.5520 na         1 A81      -0.045800
     24 C25          3.3590    -1.6340    -0.5700 cd         1 A81       0.009000
     25 N26          5.8020    -2.0340    -0.9070 ns         1 A81      -0.400200
     26 C27          6.8920    -1.1980    -0.8810 c          1 A81       0.584200
     27 O28          8.0540    -1.5330    -1.0440 o          1 A81      -0.488000
     28 C29          6.3610     0.1410    -0.5780 cc         1 A81      -0.268500
     29 Br           7.4990     1.6470    -0.4770 br         1 A81       0.024300
     30 H1          -2.3990     1.3540     0.9940 h4         1 A81       0.045100
     31 H2           2.3140     1.5790     0.1890 h4         1 A81       0.052100
     32 H3           1.0590    -2.9850    -0.7600 hn         1 A81       0.389000
     33 H4          -3.2980    -2.7090    -0.5560 h4         1 A81       0.160000
     34 H5          -6.0200    -3.1460    -0.0270 hn         1 A81       0.343500
     35 H7           3.1270    -2.6700    -0.7850 h4         1 A81       0.155000
     36 H8           5.9090    -2.9970    -0.6070 hn         1 A81       0.344500
     37 N02         -0.1110     1.1820     0.4240 no         1 A81       0.739200
@<TRIPOS>BOND
     1     1    11 1   
     2     1    12 2   
     3     1    30 1   
     4     2     3 1   
     5     2     7 1   
     6     2    24 2   
     7     3    21 2   
     8     3    31 1   
     9     4    37 1   
    10     5    37 1   
    11     6     7 2   
    12     6    10 1   
    13     6    37 1   
    14     7     8 1   
    15     8     9 1   
    16     8    32 1   
    17     9    10 2   
    18    10    11 1   
    19    11    15 2   
    20    12    13 1   
    21    13    14 1   
    22    13    19 2   
    23    14    15 1   
    24    14    16 1   
    25    15    33 1   
    26    16    17 1   
    27    16    34 1   
    28    17    18 2   
    29    17    19 1   
    30    19    20 1   
    31    21    22 1   
    32    22    23 1   
    33    22    28 2   
    34    23    24 1   
    35    23    25 1   
    36    24    35 1   
    37    25    26 1   
    38    25    36 1   
    39    26    27 2   
    40    26    28 1   
    41    28    29 1   
@<TRIPOS>SUBSTRUCTURE
     1 A81         1 TEMP              0 ****  ****    0 ROOT
