@<TRIPOS>MOLECULE
A81
   37    41     1     0     0
SMALL
abcg2


@<TRIPOS>ATOM
      1 C10         -3.1960     0.4840     1.0560 cc         1 A81       0.463900
      2 C20          2.5030    -0.5460     0.1080 cc         1 A81      -0.219000
      3 C21          3.1700     0.5390     0.7320 cc         1 A81       0.469900
      4 O01         -1.1980     1.7420    -0.6540 o          1 A81      -0.396500
      5 O03          0.9400     1.8120    -0.6840 o          1 A81      -0.396500
      6 C04         -0.0620    -0.0370     0.1280 cd         1 A81      -0.302200
      7 C05          1.0840    -0.8030     0.3030 cc         1 A81       0.025000
      8 N06          0.6260    -1.9920     0.7010 na         1 A81       0.017800
      9 N07         -0.6950    -2.0620     0.8050 nd         1 A81      -0.509800
     10 C08         -1.1520    -0.8790     0.4580 cc         1 A81       0.404500
     11 C09         -2.5910    -0.6350     0.4340 cc         1 A81      -0.290500
     12 N11         -4.4820     0.7000     1.0820 nd         1 A81      -0.653000
     13 C12         -5.2780    -0.2020     0.4940 cd         1 A81       0.504500
     14 N13         -4.7350    -1.3270    -0.0970 na         1 A81      -0.047800
     15 C14         -3.4230    -1.5540    -0.1510 cd         1 A81       0.017000
     16 N15         -5.7250    -2.0470    -0.6700 ns         1 A81      -0.400200
     17 C16         -6.9630    -1.4730    -0.3750 c          1 A81       0.585200
     18 O17         -8.0320    -1.9630    -0.7000 o          1 A81      -0.503000
     19 C18         -6.6390    -0.2680     0.3250 cc         1 A81      -0.283500
     20 BR2         -7.8800     0.9600     0.9270 br         1 A81       0.013300
     21 N22          4.4410     0.7840     0.5990 nd         1 A81      -0.644000
     22 C23          5.1620    -0.0460    -0.1690 cd         1 A81       0.498500
     23 N24          4.5570    -1.1310    -0.7790 na         1 A81      -0.045800
     24 C25          3.2550    -1.3870    -0.6730 cd         1 A81       0.009000
     25 N26          5.4670    -1.7730    -1.5440 ns         1 A81      -0.400200
     26 C27          6.7270    -1.1970    -1.3670 c          1 A81       0.584200
     27 O28          7.7470    -1.6310    -1.8700 o          1 A81      -0.488000
     28 C29          6.4850    -0.0620    -0.5240 cc         1 A81      -0.268500
     29 BR           7.7820     1.1370     0.0130 br         1 A81       0.024300
     30 H1          -2.5760     1.2100     1.5660 h4         1 A81       0.045100
     31 H2           2.6110     1.2060     1.3770 h4         1 A81       0.052100
     32 H3           1.1880    -2.7890     0.9680 hn         1 A81       0.389000
     33 H4          -3.0870    -2.4470    -0.6580 h4         1 A81       0.160000
     34 H5          -5.5740    -3.0340    -0.8300 hn         1 A81       0.343500
     35 H7           2.8650    -2.2370    -1.2150 h4         1 A81       0.155000
     36 H8           5.3110    -2.7470    -1.7690 hn         1 A81       0.344500
     37 N02         -0.1100     1.2600    -0.4320 no         1 A81       0.739200
@<TRIPOS>BOND
     1     1    11 1   
     2     1    12 2   
     3     1    30 1   
     4     2     3 1   
     5     2     7 1   
     6     2    24 2   
     7     3    21 2   
     8     3    31 1   
     9     4    37 1   
    10     5    37 1   
    11     6     7 2   
    12     6    10 1   
    13     6    37 1   
    14     7     8 1   
    15     8     9 1   
    16     8    32 1   
    17     9    10 2   
    18    10    11 1   
    19    11    15 2   
    20    12    13 1   
    21    13    14 1   
    22    13    19 2   
    23    14    15 1   
    24    14    16 1   
    25    15    33 1   
    26    16    17 1   
    27    16    34 1   
    28    17    18 2   
    29    17    19 1   
    30    19    20 1   
    31    21    22 1   
    32    22    23 1   
    33    22    28 2   
    34    23    24 1   
    35    23    25 1   
    36    24    35 1   
    37    25    26 1   
    38    25    36 1   
    39    26    27 2   
    40    26    28 1   
    41    28    29 1   
@<TRIPOS>SUBSTRUCTURE
     1 A81         1 TEMP              0 ****  ****    0 ROOT
