@<TRIPOS>MOLECULE
A82
   53    56     1     0     0
SMALL
No Charge or Current Charge


@<TRIPOS>ATOM
      1 C1          -3.1300     3.3090    -0.1780 cc         1 A82      -0.166300
      2 C2          -3.7450     2.1250    -0.4930 cd         1 A82      -0.062000
      3 N3          -3.1000     0.8950    -0.3390 n          1 A82       0.000200
      4 C4          -1.7750     0.8330     0.1420 cc         1 A82       0.137000
      5 N5          -1.1210    -0.3250     0.2880 nd         1 A82      -0.410600
      6 C6          -1.7650    -1.5160    -0.0170 cd         1 A82       0.503600
      7 C7          -3.0510    -1.4930    -0.4680 cc         1 A82      -0.534200
      8 C8          -3.7990    -0.2800    -0.6640 c          1 A82       0.541000
      9 O9          -4.9510    -0.3120    -1.0790 o          1 A82      -0.596000
     10 N10         -1.0260    -2.6940     0.1800 nh         1 A82      -0.643400
     11 C11         -1.6430    -4.0520    -0.0070 c6         1 A82       0.187800
     12 C12         -0.5960    -5.1750    -0.2630 c6         1 A82       0.134600
     13 O13          0.4660    -5.1310     0.7160 os         1 A82      -0.462000
     14 C14          1.1810    -3.8770     0.6820 c6         1 A82       0.134600
     15 C15          0.2330    -2.6910     1.0090 c6         1 A82       0.187800
     16 C16         -1.1230     2.0310     0.4810 cd         1 A82      -0.096300
     17 C17         -1.7930     3.2350     0.3190 cc         1 A82      -0.051000
     18 C18          0.3010     2.1000     1.0320 c3         1 A82       0.311800
     19 C19          0.5040     1.3880     2.3900 c3         1 A82      -0.118100
     20 C20         -3.7820     4.6590    -0.3250 c3         1 A82      -0.026800
     21 N21          1.2510     1.6240     0.0240 nu         1 A82      -0.977200
     22 C22          2.6370     1.6730     0.1040 ca         1 A82       0.361000
     23 C23          4.8370     0.6860    -0.2370 ca         1 A82      -0.045000
     24 C24          3.4300     0.5960    -0.3500 ca         1 A82      -0.220600
     25 C25          5.4400     1.8310     0.3080 ca         1 A82      -0.209000
     26 C26          3.2550     2.8190     0.6420 ca         1 A82      -0.248000
     27 C27          4.6510     2.9000     0.7460 ca         1 A82      -0.084000
     28 C28          2.8210    -0.6500    -0.9410 c          1 A82       0.718600
     29 O29          3.4330    -1.7000    -0.8180 o          1 A82      -0.727000
     30 O30          1.7600    -0.5640    -1.5420 o          1 A82      -0.727000
     31 H2          -4.7570     2.0640    -0.8750 h4         1 A82       0.162000
     32 H17         -1.3030     4.1700     0.5720 ha         1 A82       0.119000
     33 H201        -4.8000     4.5710    -0.7210 hc         1 A82       0.038033
     34 H202        -3.8420     5.1710     0.6430 hc         1 A82       0.038033
     35 H203        -3.2100     5.2970    -1.0100 hc         1 A82       0.038033
     36 H7          -3.6000    -2.3900    -0.7060 ha         1 A82       0.203000
     37 H111        -2.2370    -4.3140     0.8800 h1         1 A82       0.059200
     38 H112        -2.3250    -4.0580    -0.8680 h1         1 A82       0.059200
     39 H151         0.8090    -1.7680     0.8630 h1         1 A82       0.059200
     40 H152        -0.0320    -2.7340     2.0760 h1         1 A82       0.059200
     41 H121        -1.0870    -6.1570    -0.2200 h1         1 A82       0.067700
     42 H122        -0.1650    -5.0570    -1.2680 h1         1 A82       0.067700
     43 H141         2.0030    -3.9070     1.4110 h1         1 A82       0.067700
     44 H142         1.6200    -3.7370    -0.3160 h1         1 A82       0.067700
     45 H18          0.5180     3.1600     1.2200 h1         1 A82       0.036700
     46 H191         1.4890     1.6320     2.8060 hc         1 A82       0.038700
     47 H192        -0.2550     1.7210     3.1070 hc         1 A82       0.038700
     48 H193         0.4390     0.2990     2.3000 hc         1 A82       0.038700
     49 H21          0.9430     0.7880    -0.4940 hn         1 A82       0.558000
     50 H26          2.6570     3.6600     0.9790 ha         1 A82       0.082000
     51 H23          5.4680    -0.1320    -0.5780 ha         1 A82       0.125000
     52 H25          6.5230     1.8880     0.3870 ha         1 A82       0.087000
     53 H27          5.1180     3.7900     1.1640 ha         1 A82       0.076000
@<TRIPOS>BOND
     1     1     2 2   
     2     1    17 1   
     3     1    20 1   
     4     2     3 1   
     5     2    31 1   
     6     3     4 1   
     7     3     8 1   
     8     4     5 2   
     9     4    16 1   
    10     5     6 1   
    11     6     7 2   
    12     6    10 1   
    13     7     8 1   
    14     7    36 1   
    15     8     9 2   
    16    10    11 1   
    17    10    15 1   
    18    11    12 1   
    19    11    37 1   
    20    11    38 1   
    21    12    13 1   
    22    12    41 1   
    23    12    42 1   
    24    13    14 1   
    25    14    15 1   
    26    14    43 1   
    27    14    44 1   
    28    15    39 1   
    29    15    40 1   
    30    16    17 2   
    31    16    18 1   
    32    17    32 1   
    33    18    19 1   
    34    18    21 1   
    35    18    45 1   
    36    19    46 1   
    37    19    47 1   
    38    19    48 1   
    39    20    33 1   
    40    20    34 1   
    41    20    35 1   
    42    21    22 1   
    43    21    49 1   
    44    22    24 ar  
    45    22    26 ar  
    46    23    24 ar  
    47    23    25 ar  
    48    23    51 1   
    49    24    28 1   
    50    25    27 ar  
    51    25    52 1   
    52    26    27 ar  
    53    26    50 1   
    54    27    53 1   
    55    28    29 1   
    56    28    30 1   
@<TRIPOS>SUBSTRUCTURE
     1 A82         1 TEMP              0 ****  ****    0 ROOT
