@<TRIPOS>MOLECULE
A82
   53    56     1     0     0
SMALL
abcg2


@<TRIPOS>ATOM
      1 C1          -2.9860     3.2380    -0.3400 cc         1 A82      -0.166300
      2 C2          -3.6150     2.0680    -0.5920 cd         1 A82      -0.062000
      3 N3          -3.0180     0.8600    -0.3410 n          1 A82       0.000200
      4 C4          -1.7510     0.7640     0.1780 cc         1 A82       0.137000
      5 N5          -1.1670    -0.3810     0.4160 nd         1 A82      -0.410600
      6 C6          -1.8040    -1.5330     0.1530 cd         1 A82       0.503600
      7 C7          -3.1060    -1.5300    -0.3510 cc         1 A82      -0.534200
      8 C8          -3.7740    -0.3330    -0.6320 c          1 A82       0.541000
      9 O9          -4.9070    -0.2040    -1.0840 o          1 A82      -0.596000
     10 N10         -1.1080    -2.6630     0.4060 nh         1 A82      -0.643400
     11 C11         -1.6790    -3.9920     0.3140 c6         1 A82       0.187800
     12 C12         -0.6630    -4.9580    -0.2740 c6         1 A82       0.134600
     13 O13          0.5490    -4.9500     0.4400 os         1 A82      -0.462000
     14 C14          1.1110    -3.6540     0.4450 c6         1 A82       0.134600
     15 C15          0.1800    -2.6410     1.0810 c6         1 A82       0.187800
     16 C16         -1.0570     1.9870     0.4610 cd         1 A82      -0.096300
     17 C17         -1.6740     3.1690     0.1990 cc         1 A82      -0.051000
     18 C18          0.3280     1.9680     1.0700 c3         1 A82       0.311800
     19 C19          0.3240     1.4330     2.5060 c3         1 A82      -0.118100
     20 C20         -3.6310     4.5600    -0.6130 c3         1 A82      -0.026800
     21 N21          1.2600     1.2900     0.2010 nu         1 A82      -0.977200
     22 C22          2.6100     1.4700     0.2570 ca         1 A82       0.361000
     23 C23          4.8560     0.8590    -0.4110 ca         1 A82      -0.045000
     24 C24          3.4870     0.6090    -0.4610 ca         1 A82      -0.220600
     25 C25          5.4070     1.9040     0.3140 ca         1 A82      -0.209000
     26 C26          3.1820     2.5220     1.0010 ca         1 A82      -0.248000
     27 C27          4.5480     2.7350     1.0220 ca         1 A82      -0.084000
     28 C28          3.0090    -0.5700    -1.2940 c          1 A82       0.718600
     29 O29          3.8750    -1.2280    -1.8990 o          1 A82      -0.727000
     30 O30          1.7750    -0.8020    -1.3180 o          1 A82      -0.727000
     31 H2          -4.6110     2.0100    -1.0020 h4         1 A82       0.162000
     32 H17         -1.1530     4.0960     0.4090 ha         1 A82       0.119000
     33 H201        -4.6370     4.4410    -1.0130 hc         1 A82       0.038033
     34 H202        -3.7010     5.1540     0.2990 hc         1 A82       0.038033
     35 H203        -3.0490     5.1380    -1.3320 hc         1 A82       0.038033
     36 H7          -3.6560    -2.4370    -0.5510 ha         1 A82       0.203000
     37 H111        -1.9960    -4.3330     1.3070 h1         1 A82       0.059200
     38 H112        -2.5550    -4.0010    -0.3300 h1         1 A82       0.059200
     39 H151         0.6200    -1.6530     1.0020 h1         1 A82       0.059200
     40 H152         0.0390    -2.8710     2.1450 h1         1 A82       0.059200
     41 H121        -1.0640    -5.9720    -0.2380 h1         1 A82       0.067700
     42 H122        -0.4910    -4.6970    -1.3280 h1         1 A82       0.067700
     43 H141         2.0410    -3.7020     1.0140 h1         1 A82       0.067700
     44 H142         1.3490    -3.3250    -0.5740 h1         1 A82       0.067700
     45 H18          0.6210     3.0200     1.1220 h1         1 A82       0.036700
     46 H191         1.3230     1.5150     2.9350 hc         1 A82       0.038700
     47 H192        -0.3550     2.0130     3.1330 hc         1 A82       0.038700
     48 H193         0.0230     0.3890     2.5370 hc         1 A82       0.038700
     49 H21          0.9920     0.4040    -0.2270 hn         1 A82       0.558000
     50 H26          2.5520     3.1900     1.5730 ha         1 A82       0.082000
     51 H23          5.5060     0.1970    -0.9680 ha         1 A82       0.125000
     52 H25          6.4760     2.0660     0.3280 ha         1 A82       0.087000
     53 H27          4.9420     3.5610     1.6020 ha         1 A82       0.076000
@<TRIPOS>BOND
     1     1     2 2   
     2     1    17 1   
     3     1    20 1   
     4     2     3 1   
     5     2    31 1   
     6     3     4 1   
     7     3     8 1   
     8     4     5 2   
     9     4    16 1   
    10     5     6 1   
    11     6     7 2   
    12     6    10 1   
    13     7     8 1   
    14     7    36 1   
    15     8     9 2   
    16    10    11 1   
    17    10    15 1   
    18    11    12 1   
    19    11    37 1   
    20    11    38 1   
    21    12    13 1   
    22    12    41 1   
    23    12    42 1   
    24    13    14 1   
    25    14    15 1   
    26    14    43 1   
    27    14    44 1   
    28    15    39 1   
    29    15    40 1   
    30    16    17 2   
    31    16    18 1   
    32    17    32 1   
    33    18    19 1   
    34    18    21 1   
    35    18    45 1   
    36    19    46 1   
    37    19    47 1   
    38    19    48 1   
    39    20    33 1   
    40    20    34 1   
    41    20    35 1   
    42    21    22 1   
    43    21    49 1   
    44    22    24 ar  
    45    22    26 ar  
    46    23    24 ar  
    47    23    25 ar  
    48    23    51 1   
    49    24    28 1   
    50    25    27 ar  
    51    25    52 1   
    52    26    27 ar  
    53    26    50 1   
    54    27    53 1   
    55    28    29 1   
    56    28    30 1   
@<TRIPOS>SUBSTRUCTURE
     1 A82         1 TEMP              0 ****  ****    0 ROOT
