@<TRIPOS>MOLECULE
A83
   99   102     1     0     0
SMALL
No Charge or Current Charge


@<TRIPOS>ATOM
      1 C           -2.1450    -3.8060     1.2320 c          1 A83       0.612700
      2 O           -1.4420    -3.7950     2.2330 o          1 A83      -0.610100
      3 N           -1.6350    -4.1770     0.0070 ns         1 A83      -0.489900
      4 C1          -0.2060    -4.3620    -0.2750 c3         1 A83       0.090700
      5 C2           0.4520    -3.0570    -0.6410 cc         1 A83       0.137300
      6 C3           0.6070    -1.9610     0.1470 cd         1 A83      -0.153000
      7 N1           1.1530    -1.0280    -0.7040 na         1 A83       0.130800
      8 N2           1.3520    -1.5780    -1.9470 nd         1 A83      -0.203800
      9 N3           0.9190    -2.8130    -1.9010 nc         1 A83      -0.364000
     10 C4           1.4610     0.3900    -0.4260 c3         1 A83       0.057300
     11 C5           2.9040     0.5340     0.1390 c3         1 A83       0.131300
     12 C6           3.4720     1.9820     0.1260 c3         1 A83       0.198800
     13 N4           4.6630     2.1420     1.0100 n3         1 A83      -0.783500
     14 C7           4.5460     3.1450     2.1000 c3         1 A83       0.236800
     15 C8           4.7170     4.6520     1.7350 c3         1 A83      -0.095700
     16 C9           3.7080     5.1780     0.6840 c3         1 A83      -0.087600
     17 C10          4.6640     5.5230     3.0120 c3         1 A83      -0.087600
     18 S            6.1970     2.0050     0.2730 sy         1 A83       1.188600
     19 O1           6.3480     3.1370    -0.6460 o          1 A83      -0.546000
     20 O2           7.1410     1.7490     1.3660 o          1 A83      -0.546000
     21 C11          6.0390     0.4760    -0.6550 ca         1 A83      -0.342500
     22 C12          5.8110     0.5100    -2.0450 ca         1 A83       0.021000
     23 C13          5.6380    -0.6910    -2.7510 ca         1 A83      -0.198500
     24 C14          5.6900    -1.9250    -2.0860 ca         1 A83       0.210100
     25 C15          5.9320    -1.9570    -0.6960 ca         1 A83      -0.198500
     26 C16          6.1090    -0.7600     0.0170 ca         1 A83       0.021000
     27 O3           5.4980    -3.0680    -2.8350 os         1 A83      -0.321100
     28 C17          5.4650    -4.3770    -2.2410 c3         1 A83       0.148900
     29 C18          0.3540     1.0880     0.4280 c3         1 A83      -0.042100
     30 O4           3.0040     0.0360     1.4830 oh         1 A83      -0.639000
     31 C19         -1.0730     0.8030    -0.0460 ca         1 A83      -0.098300
     32 C20         -2.0340     0.3170     0.8640 ca         1 A83      -0.098000
     33 C21         -3.3420     0.0330     0.4350 ca         1 A83      -0.108000
     34 C22         -3.6980     0.2250    -0.9090 ca         1 A83      -0.105000
     35 C23         -2.7510     0.7190    -1.8210 ca         1 A83      -0.108000
     36 C24         -1.4440     1.0120    -1.3910 ca         1 A83      -0.098000
     37 C25         -3.5980    -3.3780     1.2620 ca         1 A83      -0.151600
     38 C26         -4.1960    -3.0440     2.4980 ca         1 A83      -0.074500
     39 C27         -5.5230    -2.5860     2.5560 ca         1 A83      -0.107500
     40 C28         -6.2800    -2.4480     1.3790 ca         1 A83      -0.104300
     41 C29         -5.6990    -2.7900     0.1450 ca         1 A83      -0.107500
     42 C30         -4.3740    -3.2520     0.0830 ca         1 A83      -0.074500
     43 C31         -7.6980    -1.9000     1.4390 c3         1 A83       0.158300
     44 N5          -7.6930    -0.4500     1.6140 ns         1 A83      -0.503900
     45 C45         -7.5580     0.4530     0.6010 c          1 A83       0.650100
     46 O46         -7.4870     0.1650    -0.5820 o          1 A83      -0.548000
     47 O47         -7.5330     1.7040     1.1540 os         1 A83      -0.484100
     48 C48         -7.3870     2.9050     0.3590 c3         1 A83       0.225000
     49 C49         -8.5980     3.0460    -0.5980 c3         1 A83      -0.109767
     50 C50         -7.3980     4.0510     1.3950 c3         1 A83      -0.109767
     51 C51         -6.0260     2.8780    -0.3830 c3         1 A83      -0.109767
     52 HN          -2.2780    -4.1750    -0.7740 hn         1 A83       0.319500
     53 H11         -0.0980    -5.0760    -1.1020 h1         1 A83       0.068700
     54 H12A         0.2950    -4.7900     0.6040 h1         1 A83       0.068700
     55 H3           0.3450    -1.7700     1.1790 h4         1 A83       0.183000
     56 H4           1.4620     0.8900    -1.4030 h1         1 A83       0.097700
     57 H5           3.5480    -0.0670    -0.5150 h1         1 A83       0.103700
     58 H61          2.6740     2.6490     0.4700 h1         1 A83       0.057700
     59 H62          3.6960     2.2790    -0.9070 h1         1 A83       0.057700
     60 H71          3.5690     3.0280     2.5890 h1         1 A83       0.059200
     61 H72          5.2890     2.9080     2.8740 h1         1 A83       0.059200
     62 H8           5.7220     4.7860     1.3180 hc         1 A83       0.065700
     63 H91          2.6760     5.0090     1.0120 hc         1 A83       0.036533
     64 H92          3.8420     6.2550     0.5250 hc         1 A83       0.036533
     65 H93          3.8550     4.6880    -0.2850 hc         1 A83       0.036533
     66 H101         5.4210     5.1990     3.7360 hc         1 A83       0.036533
     67 H102         4.8570     6.5760     2.7740 hc         1 A83       0.036533
     68 H103         3.6790     5.4550     3.4910 hc         1 A83       0.036533
     69 H12          5.7540     1.4580    -2.5790 ha         1 A83       0.135000
     70 H13          5.4540    -0.6660    -3.8220 ha         1 A83       0.131500
     71 H15          5.9800    -2.8960    -0.1530 ha         1 A83       0.131500
     72 H16          6.2800    -0.7960     1.0920 ha         1 A83       0.135000
     73 H171         6.4190    -4.6070    -1.7510 h1         1 A83       0.046700
     74 H172         4.6600    -4.4470    -1.4980 h1         1 A83       0.046700
     75 H173         5.2860    -5.1380    -3.0090 h1         1 A83       0.046700
     76 H181         0.4620     0.7780     1.4740 hc         1 A83       0.057200
     77 H182         0.5170     2.1720     0.4190 hc         1 A83       0.057200
     78 HO4          3.7470     0.5650     1.8610 ho         1 A83       0.439000
     79 H20         -1.7700     0.1530     1.9060 ha         1 A83       0.115500
     80 H21         -4.0770    -0.3400     1.1430 ha         1 A83       0.116000
     81 H22         -4.7070    -0.0060    -1.2420 ha         1 A83       0.120000
     82 H23         -3.0280     0.8750    -2.8610 ha         1 A83       0.116000
     83 H24         -0.7230     1.3960    -2.1080 ha         1 A83       0.115500
     84 H26         -3.6270    -3.1240     3.4220 ha         1 A83       0.127500
     85 H27         -5.9570    -2.3200     3.5170 ha         1 A83       0.125500
     86 H29         -6.2700    -2.6780    -0.7740 ha         1 A83       0.125500
     87 H30         -3.9590    -3.4820    -0.8950 ha         1 A83       0.127500
     88 H311        -8.2440    -2.1550     0.5200 h1         1 A83       0.069700
     89 H312        -8.2340    -2.3570     2.2820 h1         1 A83       0.069700
     90 HN5         -7.7390    -0.0640     2.5470 hn         1 A83       0.323500
     91 H491        -9.5410     2.8950    -0.0590 hc         1 A83       0.050033
     92 H492        -8.6190     4.0490    -1.0420 hc         1 A83       0.050033
     93 H493        -8.5540     2.3280    -1.4240 hc         1 A83       0.050033
     94 H501        -6.5700     3.9410     2.1060 hc         1 A83       0.050033
     95 H502        -7.2940     5.0240     0.9010 hc         1 A83       0.050033
     96 H503        -8.3370     4.0560     1.9610 hc         1 A83       0.050033
     97 H511        -6.0340     2.1770    -1.2240 hc         1 A83       0.050033
     98 H512        -5.7940     3.8690    -0.7920 hc         1 A83       0.050033
     99 H513        -5.2150     2.5950     0.2980 hc         1 A83       0.050033
@<TRIPOS>BOND
     1     1     2 2   
     2     1     3 1   
     3     1    37 1   
     4     3     4 1   
     5     3    52 1   
     6     4     5 1   
     7     4    53 1   
     8     4    54 1   
     9     5     6 2   
    10     5     9 1   
    11     6     7 1   
    12     6    55 1   
    13     7     8 1   
    14     7    10 1   
    15     8     9 2   
    16    10    11 1   
    17    10    29 1   
    18    10    56 1   
    19    11    12 1   
    20    11    30 1   
    21    11    57 1   
    22    12    13 1   
    23    12    58 1   
    24    12    59 1   
    25    13    14 1   
    26    13    18 1   
    27    14    15 1   
    28    14    60 1   
    29    14    61 1   
    30    15    16 1   
    31    15    17 1   
    32    15    62 1   
    33    16    63 1   
    34    16    64 1   
    35    16    65 1   
    36    17    66 1   
    37    17    67 1   
    38    17    68 1   
    39    18    19 2   
    40    18    20 2   
    41    18    21 1   
    42    21    22 ar  
    43    21    26 ar  
    44    22    23 ar  
    45    22    69 1   
    46    23    24 ar  
    47    23    70 1   
    48    24    25 ar  
    49    24    27 1   
    50    25    26 ar  
    51    25    71 1   
    52    26    72 1   
    53    27    28 1   
    54    28    73 1   
    55    28    74 1   
    56    28    75 1   
    57    29    31 1   
    58    29    76 1   
    59    29    77 1   
    60    30    78 1   
    61    31    32 ar  
    62    31    36 ar  
    63    32    33 ar  
    64    32    79 1   
    65    33    34 ar  
    66    33    80 1   
    67    34    35 ar  
    68    34    81 1   
    69    35    36 ar  
    70    35    82 1   
    71    36    83 1   
    72    37    38 ar  
    73    37    42 ar  
    74    38    39 ar  
    75    38    84 1   
    76    39    40 ar  
    77    39    85 1   
    78    40    41 ar  
    79    40    43 1   
    80    41    42 ar  
    81    41    86 1   
    82    42    87 1   
    83    43    44 1   
    84    43    88 1   
    85    43    89 1   
    86    44    45 1   
    87    44    90 1   
    88    45    46 2   
    89    45    47 1   
    90    47    48 1   
    91    48    49 1   
    92    48    50 1   
    93    48    51 1   
    94    49    91 1   
    95    49    92 1   
    96    49    93 1   
    97    50    94 1   
    98    50    95 1   
    99    50    96 1   
   100    51    97 1   
   101    51    98 1   
   102    51    99 1   
@<TRIPOS>SUBSTRUCTURE
     1 A83         1 TEMP              0 ****  ****    0 ROOT
