@<TRIPOS>MOLECULE
A83
   99   102     1     0     0
SMALL
abcg2


@<TRIPOS>ATOM
      1 C           -1.9270    -3.6020     1.9180 c          1 A83       0.612700
      2 O           -1.3580    -3.2580     2.9460 o          1 A83      -0.610100
      3 N           -1.2840    -4.2270     0.9140 ns         1 A83      -0.489900
      4 C1           0.1600    -4.1450     0.7840 c3         1 A83       0.090700
      5 C2           0.5610    -2.7650     0.3830 cc         1 A83       0.137300
      6 C3           0.9220    -1.7000     1.1670 cd         1 A83      -0.153000
      7 N1           1.0120    -0.6730     0.3060 na         1 A83       0.130800
      8 N2           0.7380    -1.0680    -0.9280 nd         1 A83      -0.203800
      9 N3           0.4640    -2.3240    -0.8910 nc         1 A83      -0.364000
     10 C4           1.3890     0.7070     0.5570 c3         1 A83       0.057300
     11 C5           2.8940     0.7720     0.8520 c3         1 A83       0.131300
     12 C6           3.4480     2.1890     0.6950 c3         1 A83       0.198800
     13 N4           4.9040     2.2050     0.7180 n3         1 A83      -0.783500
     14 C7           5.6280     2.4910     1.9560 c3         1 A83       0.236800
     15 C8           6.1170     3.9290     2.1250 c3         1 A83      -0.095700
     16 C9           4.9910     4.9490     2.0120 c3         1 A83      -0.087600
     17 C10          6.8300     4.0510     3.4680 c3         1 A83      -0.087600
     18 S            5.6980     2.3060    -0.7220 sy         1 A83       1.188600
     19 O1           5.3430     3.5250    -1.4400 o          1 A83      -0.546000
     20 O2           7.1060     2.0630    -0.4380 o          1 A83      -0.546000
     21 C11          5.0300     0.9480    -1.6210 ca         1 A83      -0.342500
     22 C12          4.0160     1.1550    -2.5500 ca         1 A83       0.021000
     23 C13          3.3800     0.0720    -3.1180 ca         1 A83      -0.198500
     24 C14          3.7510    -1.2300    -2.7670 ca         1 A83       0.210100
     25 C15          4.8000    -1.4300    -1.8650 ca         1 A83      -0.198500
     26 C16          5.4330    -0.3400    -1.2930 ca         1 A83       0.021000
     27 O3           3.0580    -2.2140    -3.3420 os         1 A83      -0.321100
     28 C17          3.2690    -3.5470    -2.9130 c3         1 A83       0.148900
     29 C18          0.5050     1.3340     1.6380 c3         1 A83      -0.042100
     30 O4           3.2330     0.1980     2.0890 oh         1 A83      -0.639000
     31 C19         -0.9590     1.2930     1.2900 ca         1 A83      -0.098300
     32 C20         -1.8000     0.3310     1.8420 ca         1 A83      -0.098000
     33 C21         -3.1490     0.2960     1.5170 ca         1 A83      -0.108000
     34 C22         -3.6760     1.2240     0.6300 ca         1 A83      -0.105000
     35 C23         -2.8450     2.1860     0.0680 ca         1 A83      -0.108000
     36 C24         -1.4970     2.2190     0.3980 ca         1 A83      -0.098000
     37 C25         -3.3740    -3.3090     1.7080 ca         1 A83      -0.151600
     38 C26         -4.2000    -3.1590     2.8180 ca         1 A83      -0.074500
     39 C27         -5.5160    -2.7520     2.6620 ca         1 A83      -0.107500
     40 C28         -6.0290    -2.4660     1.4010 ca         1 A83      -0.104300
     41 C29         -5.2030    -2.6260     0.2910 ca         1 A83      -0.107500
     42 C30         -3.8920    -3.0450     0.4410 ca         1 A83      -0.074500
     43 C31         -7.4250    -1.9190     1.2400 c3         1 A83       0.158300
     44 N5          -7.4150    -0.5160     0.8910 ns         1 A83      -0.503900
     45 C45         -7.4960    -0.0740    -0.3840 c          1 A83       0.650100
     46 O46         -7.7390    -0.7800    -1.3410 o          1 A83      -0.548000
     47 O47         -7.2820     1.2410    -0.4220 os         1 A83      -0.484100
     48 C48         -7.3320     2.0140    -1.6510 c3         1 A83       0.225000
     49 C49         -8.7370     1.9960    -2.2400 c3         1 A83      -0.109767
     50 C50         -6.9790     3.4200    -1.1840 c3         1 A83      -0.109767
     51 C51         -6.2890     1.5310    -2.6530 c3         1 A83      -0.109767
     52 HN          -1.7960    -4.4850     0.0860 hn         1 A83       0.319500
     53 H11          0.4650    -4.8680     0.0290 h1         1 A83       0.068700
     54 H12A         0.6360    -4.4290     1.7200 h1         1 A83       0.068700
     55 H3           1.0950    -1.6110     2.2250 h4         1 A83       0.183000
     56 H4           1.2080     1.2180    -0.3910 h1         1 A83       0.097700
     57 H5           3.3720     0.1390     0.1030 h1         1 A83       0.103700
     58 H61          3.0800     2.8380     1.4930 h1         1 A83       0.057700
     59 H62          3.0710     2.6360    -0.2280 h1         1 A83       0.057700
     60 H71          4.9420     2.2420     2.7670 h1         1 A83       0.059200
     61 H72          6.4680     1.8010     2.0480 h1         1 A83       0.059200
     62 H8           6.8490     4.1340     1.3380 hc         1 A83       0.065700
     63 H91          4.2370     4.7920     2.7860 hc         1 A83       0.036533
     64 H92          5.3800     5.9610     2.1350 hc         1 A83       0.036533
     65 H93          4.4980     4.9110     1.0400 hc         1 A83       0.036533
     66 H101         7.6420     3.3290     3.5610 hc         1 A83       0.036533
     67 H102         7.2560     5.0480     3.5910 hc         1 A83       0.036533
     68 H103         6.1360     3.8850     4.2960 hc         1 A83       0.036533
     69 H12          3.7000     2.1550    -2.8170 ha         1 A83       0.135000
     70 H13          2.5770     0.2220    -3.8280 ha         1 A83       0.131500
     71 H15          5.1250    -2.4220    -1.5850 ha         1 A83       0.131500
     72 H16          6.2240    -0.5070    -0.5740 ha         1 A83       0.135000
     73 H171         4.2790    -3.8950    -3.1430 h1         1 A83       0.046700
     74 H172         3.0850    -3.6570    -1.8420 h1         1 A83       0.046700
     75 H173         2.5560    -4.1600    -3.4560 h1         1 A83       0.046700
     76 H181         0.6660     0.8410     2.5990 hc         1 A83       0.057200
     77 H182         0.8240     2.3720     1.7680 hc         1 A83       0.057200
     78 HO4          2.9170     0.7590     2.8060 ho         1 A83       0.439000
     79 H20         -1.4000    -0.4020     2.5330 ha         1 A83       0.115500
     80 H21         -3.7910    -0.4540     1.9610 ha         1 A83       0.116000
     81 H22         -4.7290     1.2000     0.3800 ha         1 A83       0.120000
     82 H23         -3.2480     2.9170    -0.6220 ha         1 A83       0.116000
     83 H24         -0.8580     2.9780    -0.0390 ha         1 A83       0.115500
     84 H26         -3.8110    -3.3480     3.8090 ha         1 A83       0.127500
     85 H27         -6.1460    -2.6370     3.5360 ha         1 A83       0.125500
     86 H29         -5.5760    -2.4020    -0.7000 ha         1 A83       0.125500
     87 H30         -3.2690    -3.1130    -0.4420 ha         1 A83       0.127500
     88 H311        -7.9650    -2.4660     0.4680 h1         1 A83       0.069700
     89 H312        -7.9850    -2.0400     2.1670 h1         1 A83       0.069700
     90 HN5         -7.1430     0.1380     1.6080 hn         1 A83       0.323500
     91 H491        -9.4730     2.3100    -1.4980 hc         1 A83       0.050033
     92 H492        -8.7870     2.7000    -3.0720 hc         1 A83       0.050033
     93 H493        -9.0160     1.0150    -2.6170 hc         1 A83       0.050033
     94 H501        -5.9740     3.4570    -0.7600 hc         1 A83       0.050033
     95 H502        -7.0100     4.1080    -2.0280 hc         1 A83       0.050033
     96 H503        -7.6820     3.7800    -0.4310 hc         1 A83       0.050033
     97 H511        -6.5300     0.5580    -3.0730 hc         1 A83       0.050033
     98 H512        -6.2290     2.2460    -3.4740 hc         1 A83       0.050033
     99 H513        -5.2980     1.4780    -2.1960 hc         1 A83       0.050033
@<TRIPOS>BOND
     1     1     2 2   
     2     1     3 1   
     3     1    37 1   
     4     3     4 1   
     5     3    52 1   
     6     4     5 1   
     7     4    53 1   
     8     4    54 1   
     9     5     6 2   
    10     5     9 1   
    11     6     7 1   
    12     6    55 1   
    13     7     8 1   
    14     7    10 1   
    15     8     9 2   
    16    10    11 1   
    17    10    29 1   
    18    10    56 1   
    19    11    12 1   
    20    11    30 1   
    21    11    57 1   
    22    12    13 1   
    23    12    58 1   
    24    12    59 1   
    25    13    14 1   
    26    13    18 1   
    27    14    15 1   
    28    14    60 1   
    29    14    61 1   
    30    15    16 1   
    31    15    17 1   
    32    15    62 1   
    33    16    63 1   
    34    16    64 1   
    35    16    65 1   
    36    17    66 1   
    37    17    67 1   
    38    17    68 1   
    39    18    19 2   
    40    18    20 2   
    41    18    21 1   
    42    21    22 ar  
    43    21    26 ar  
    44    22    23 ar  
    45    22    69 1   
    46    23    24 ar  
    47    23    70 1   
    48    24    25 ar  
    49    24    27 1   
    50    25    26 ar  
    51    25    71 1   
    52    26    72 1   
    53    27    28 1   
    54    28    73 1   
    55    28    74 1   
    56    28    75 1   
    57    29    31 1   
    58    29    76 1   
    59    29    77 1   
    60    30    78 1   
    61    31    32 ar  
    62    31    36 ar  
    63    32    33 ar  
    64    32    79 1   
    65    33    34 ar  
    66    33    80 1   
    67    34    35 ar  
    68    34    81 1   
    69    35    36 ar  
    70    35    82 1   
    71    36    83 1   
    72    37    38 ar  
    73    37    42 ar  
    74    38    39 ar  
    75    38    84 1   
    76    39    40 ar  
    77    39    85 1   
    78    40    41 ar  
    79    40    43 1   
    80    41    42 ar  
    81    41    86 1   
    82    42    87 1   
    83    43    44 1   
    84    43    88 1   
    85    43    89 1   
    86    44    45 1   
    87    44    90 1   
    88    45    46 2   
    89    45    47 1   
    90    47    48 1   
    91    48    49 1   
    92    48    50 1   
    93    48    51 1   
    94    49    91 1   
    95    49    92 1   
    96    49    93 1   
    97    50    94 1   
    98    50    95 1   
    99    50    96 1   
   100    51    97 1   
   101    51    98 1   
   102    51    99 1   
@<TRIPOS>SUBSTRUCTURE
     1 A83         1 TEMP              0 ****  ****    0 ROOT
