@<TRIPOS>MOLECULE
A84
   54    56     1     0     0
SMALL
bcc


@<TRIPOS>ATOM
      1 C1          -6.6020     1.4460    -0.8590 c6         1 A84      -0.072400
      2 C2          -5.4440     2.2280    -0.2640 c6         1 A84      -0.020100
      3 C3          -4.1540     1.4440    -0.2470 ca         1 A84      -0.109300
      4 C4          -4.1300     0.0450    -0.2960 ca         1 A84      -0.021300
      5 C5          -5.4260    -0.7280    -0.4240 c6         1 A84      -0.040100
      6 C6          -6.6820     0.0950    -0.1720 c6         1 A84      -0.072400
      7 C7          -2.9550     2.1490    -0.1850 ca         1 A84      -0.132000
      8 C8          -1.7390     1.5000    -0.2110 ca         1 A84      -0.163000
      9 C9          -1.7080     0.1140    -0.2770 ca         1 A84       0.138600
     10 C10         -2.8940    -0.6310    -0.2960 ca         1 A84      -0.145600
     11 C11         -2.7820    -2.1550    -0.3280 c          1 A84       0.923200
     12 O12         -1.8970    -2.6210    -1.0920 o          1 A84      -0.806300
     13 O13         -3.5220    -2.8180     0.4080 o          1 A84      -0.806300
     14 N14         -0.4580    -0.5480    -0.3720 nu         1 A84      -0.721500
     15 S15          0.5620    -0.5560     0.9290 sy         1 A84       1.285200
     16 O16         -0.1780    -0.3520     2.1660 o          1 A84      -0.622300
     17 O17          1.3810    -1.7500     0.7870 o          1 A84      -0.622300
     18 C18          1.5830     0.8760     0.6870 ca         1 A84      -0.267500
     19 C19          2.4730     0.9510    -0.3960 ca         1 A84       0.086200
     20 C20          3.2610     2.0930    -0.5050 ca         1 A84      -0.203000
     21 C21          3.1680     3.0930     0.4450 ca         1 A84       0.168900
     22 C22          2.3030     3.0180     1.5170 ca         1 A84      -0.207000
     23 C23          1.5070     1.8910     1.6310 ca         1 A84      -0.012000
     24 F24          3.9390     4.1750     0.3080 f          1 A84      -0.150900
     25 C25          2.5750    -0.0960    -1.4260 ce         1 A84      -0.138200
     26 C26          3.7030    -0.6830    -1.8220 c2         1 A84      -0.127200
     27 C27          5.0850    -0.4900    -1.2820 c3         1 A84       0.192000
     28 N28          5.6890    -1.7700    -0.9550 n3         1 A84      -0.711600
     29 C29          7.1100    -1.6360    -0.7260 c3         1 A84       0.145600
     30 C30          5.0340    -2.3830     0.1830 c3         1 A84       0.145600
     31 H11         -7.5310     2.0060    -0.7390 hc         1 A84       0.029200
     32 H12         -6.4510     1.3080    -1.9350 hc         1 A84       0.029200
     33 H21         -5.7030     2.5140     0.7620 hc         1 A84       0.031200
     34 H22A        -5.2870     3.1650    -0.8040 hc         1 A84       0.031200
     35 H51         -5.4060    -1.5840     0.2450 hc         1 A84       0.072700
     36 H52         -5.4690    -1.1460    -1.4360 hc         1 A84       0.072700
     37 H61         -6.8160     0.2500     0.9040 hc         1 A84       0.029700
     38 H62         -7.5520    -0.4700    -0.5120 hc         1 A84       0.029700
     39 H7          -2.9790     3.2320    -0.1500 ha         1 A84       0.107000
     40 H8          -0.8190     2.0710    -0.2150 ha         1 A84       0.118000
     41 H14         -0.6000    -1.4970    -0.7600 hn         1 A84       0.511800
     42 H20          3.9320     2.2140    -1.3450 ha         1 A84       0.144000
     43 H22          2.2450     3.8160     2.2440 ha         1 A84       0.144000
     44 H23          0.8210     1.8170     2.4630 ha         1 A84       0.167000
     45 H25          1.6450    -0.4000    -1.8940 ha         1 A84       0.168000
     46 H26          3.6270    -1.4270    -2.6100 ha         1 A84       0.137000
     47 H271         5.0890     0.1930    -0.4180 h1         1 A84       0.033700
     48 H272         5.6990    -0.0160    -2.0560 h1         1 A84       0.033700
     49 H291         7.5460    -2.6130    -0.5130 h1         1 A84       0.032700
     50 H292         7.6010    -1.2400    -1.6160 h1         1 A84       0.032700
     51 H293         7.3570    -0.9720     0.1180 h1         1 A84       0.032700
     52 H301         3.9720    -2.5250    -0.0170 h1         1 A84       0.032700
     53 H302         5.4740    -3.3610     0.3820 h1         1 A84       0.032700
     54 H303         5.1180    -1.7800     1.1020 h1         1 A84       0.032700
@<TRIPOS>BOND
     1     1     2 1   
     2     1     6 1   
     3     1    31 1   
     4     1    32 1   
     5     2     3 1   
     6     2    33 1   
     7     2    34 1   
     8     3     4 ar  
     9     3     7 ar  
    10     4     5 1   
    11     4    10 ar  
    12     5     6 1   
    13     5    35 1   
    14     5    36 1   
    15     6    37 1   
    16     6    38 1   
    17     7     8 ar  
    18     7    39 1   
    19     8     9 ar  
    20     8    40 1   
    21     9    10 ar  
    22     9    14 1   
    23    10    11 1   
    24    11    12 1   
    25    11    13 1   
    26    14    15 1   
    27    14    41 1   
    28    15    16 2   
    29    15    17 2   
    30    15    18 1   
    31    18    19 ar  
    32    18    23 ar  
    33    19    20 ar  
    34    19    25 1   
    35    20    21 ar  
    36    20    42 1   
    37    21    22 ar  
    38    21    24 1   
    39    22    23 ar  
    40    22    43 1   
    41    23    44 1   
    42    25    26 2   
    43    25    45 1   
    44    26    27 1   
    45    26    46 1   
    46    27    28 1   
    47    27    47 1   
    48    27    48 1   
    49    28    29 1   
    50    28    30 1   
    51    29    49 1   
    52    29    50 1   
    53    29    51 1   
    54    30    52 1   
    55    30    53 1   
    56    30    54 1   
@<TRIPOS>SUBSTRUCTURE
     1 A84         1 TEMP              0 ****  ****    0 ROOT
