@<TRIPOS>MOLECULE
A84
   54    56     1     0     0
SMALL
No Charge or Current Charge


@<TRIPOS>ATOM
      1 C1          -6.4070     1.7010    -1.0790 c6         1 A84      -0.072400
      2 C2          -5.0740     2.4110    -0.7770 c6         1 A84      -0.020100
      3 C3          -3.9050     1.4390    -0.5720 ca         1 A84      -0.109300
      4 C4          -4.1100     0.0750    -0.2290 ca         1 A84      -0.021300
      5 C5          -5.5480    -0.4770    -0.0930 c6         1 A84      -0.040100
      6 C6          -6.6560     0.5990    -0.0380 c6         1 A84      -0.072400
      7 C7          -2.6020     1.9340    -0.7380 ca         1 A84      -0.114000
      8 C8          -1.4990     1.0840    -0.6030 ca         1 A84      -0.145000
      9 C9          -1.6790    -0.2700    -0.2870 ca         1 A84       0.277000
     10 C10         -2.9810    -0.7850    -0.0880 ca         1 A84      -0.145600
     11 C11         -3.1320    -2.2440     0.2700 c          1 A84       0.712600
     12 O12         -2.5370    -3.0650    -0.4170 o          1 A84      -0.701000
     13 O13         -3.7070    -2.5390     1.3070 o          1 A84      -0.701000
     14 N14         -0.5700    -1.1010    -0.2260 nu         1 A84      -0.915100
     15 S15          0.6020    -1.0930     0.9630 sy         1 A84       1.143600
     16 O16         -0.1700    -1.1670     2.2040 o          1 A84      -0.551500
     17 O17          1.4800    -2.1840     0.5390 o          1 A84      -0.551500
     18 C18          1.4480     0.4960     0.8370 ca         1 A84      -0.267500
     19 C19          2.2850     0.8130    -0.2610 ca         1 A84       0.086200
     20 C20          2.9150     2.0710    -0.3040 ca         1 A84      -0.185000
     21 C21          2.7240     2.9990     0.7270 ca         1 A84       0.204000
     22 C22          1.8970     2.6900     1.8120 ca         1 A84      -0.189000
     23 C23          1.2560     1.4430     1.8680 ca         1 A84       0.006000
     24 F24          3.3360     4.2020     0.6690 f          1 A84      -0.186000
     25 C25          2.4890    -0.1210    -1.4010 ce         1 A84      -0.188200
     26 C26          3.6890    -0.5540    -1.8550 c2         1 A84      -0.177200
     27 C27          5.0590    -0.2190    -1.3000 c3         1 A84       0.192000
     28 N28          5.8960    -1.4280    -1.1310 n3         1 A84      -0.711600
     29 C29          7.3080    -1.0950    -0.8390 c3         1 A84       0.145600
     30 C30          5.3340    -2.3870    -0.1490 c3         1 A84       0.145600
     31 H11         -7.2300     2.4280    -1.0680 hc         1 A84       0.029200
     32 H12         -6.3800     1.2650    -2.0870 hc         1 A84       0.029200
     33 H21         -5.1860     3.0250     0.1270 hc         1 A84       0.031200
     34 H22A        -4.8450     3.1080    -1.5940 hc         1 A84       0.031200
     35 H51         -5.6480    -1.0880     0.8120 hc         1 A84       0.072700
     36 H52         -5.7440    -1.1500    -0.9390 hc         1 A84       0.072700
     37 H61         -6.6900     1.0440     0.9660 hc         1 A84       0.029700
     38 H62         -7.6370     0.1330    -0.2060 hc         1 A84       0.029700
     39 H7          -2.4420     2.9790    -0.9960 ha         1 A84       0.089000
     40 H8          -0.5030     1.4790    -0.7740 ha         1 A84       0.100000
     41 H14         -0.8390    -2.0820    -0.2340 hn         1 A84       0.567000
     42 H20          3.5460     2.3350    -1.1480 ha         1 A84       0.126000
     43 H22          1.7500     3.4170     2.6060 ha         1 A84       0.126000
     44 H23          0.6120     1.2190     2.7180 ha         1 A84       0.149000
     45 H25          1.5700    -0.4710    -1.8740 ha         1 A84       0.218000
     46 H26          3.7300    -1.2420    -2.7000 ha         1 A84       0.187000
     47 H271         4.9600     0.2980    -0.3360 h1         1 A84       0.033700
     48 H272         5.5470     0.4800    -1.9930 h1         1 A84       0.033700
     49 H291         7.9200    -2.0060    -0.7920 h1         1 A84       0.032700
     50 H292         7.7250    -0.4490    -1.6230 h1         1 A84       0.032700
     51 H293         7.3970    -0.5710     0.1220 h1         1 A84       0.032700
     52 H301         4.3260    -2.7100    -0.4400 h1         1 A84       0.032700
     53 H302         5.9630    -3.2840    -0.0800 h1         1 A84       0.032700
     54 H303         5.2730    -1.9340     0.8500 h1         1 A84       0.032700
@<TRIPOS>BOND
     1     1     2 1   
     2     1     6 1   
     3     1    31 1   
     4     1    32 1   
     5     2     3 1   
     6     2    33 1   
     7     2    34 1   
     8     3     4 ar  
     9     3     7 ar  
    10     4     5 1   
    11     4    10 ar  
    12     5     6 1   
    13     5    35 1   
    14     5    36 1   
    15     6    37 1   
    16     6    38 1   
    17     7     8 ar  
    18     7    39 1   
    19     8     9 ar  
    20     8    40 1   
    21     9    10 ar  
    22     9    14 1   
    23    10    11 1   
    24    11    12 1   
    25    11    13 1   
    26    14    15 1   
    27    14    41 1   
    28    15    16 2   
    29    15    17 2   
    30    15    18 1   
    31    18    19 ar  
    32    18    23 ar  
    33    19    20 ar  
    34    19    25 1   
    35    20    21 ar  
    36    20    42 1   
    37    21    22 ar  
    38    21    24 1   
    39    22    23 ar  
    40    22    43 1   
    41    23    44 1   
    42    25    26 2   
    43    25    45 1   
    44    26    27 1   
    45    26    46 1   
    46    27    28 1   
    47    27    47 1   
    48    27    48 1   
    49    28    29 1   
    50    28    30 1   
    51    29    49 1   
    52    29    50 1   
    53    29    51 1   
    54    30    52 1   
    55    30    53 1   
    56    30    54 1   
@<TRIPOS>SUBSTRUCTURE
     1 A84         1 TEMP              0 ****  ****    0 ROOT
