@<TRIPOS>MOLECULE
A85
  116   119     1     0     0
SMALL
bcc


@<TRIPOS>ATOM
      1 C1           0.5360     1.1290     6.6840 c          1 A85       0.793100
      2 O2          -0.0340     2.0540     7.2570 o          1 A85      -0.652100
      3 N3           1.1650     0.1300     7.3750 n          1 A85      -0.493800
      4 C4           1.3170     0.2620     8.8080 c3         1 A85       0.103300
      5 C5           1.3990    -1.1860     6.8100 c3         1 A85       0.054700
      6 C6           2.7870    -1.3450     6.2430 ca         1 A85       0.391600
      7 C7           3.7290    -2.1800     6.8290 ca         1 A85      -0.234300
      8 N8           3.0540    -0.6340     5.1490 nb         1 A85      -0.683000
      9 C9           4.9910    -2.2710     6.2570 ca         1 A85      -0.086000
     10 C10          4.2600    -0.7210     4.6060 ca         1 A85       0.416200
     11 C11          5.2660    -1.5260     5.1220 ca         1 A85      -0.243300
     12 N21          0.5990     1.0260     5.3310 ns         1 A85      -0.587900
     13 C22         -0.1320     1.9190     4.4730 c3         1 A85       0.063700
     14 C23         -0.5630     1.1040     3.2650 c          1 A85       0.674100
     15 O24          0.2300     0.3940     2.6520 o          1 A85      -0.635100
     16 C25          0.6450     3.1930     4.0780 c3         1 A85      -0.075700
     17 C26          1.9750     2.9210     3.3860 c3         1 A85      -0.092600
     18 C27         -0.2280     4.1240     3.2420 c3         1 A85      -0.092600
     19 N37         -1.8510     1.2160     2.9090 ns         1 A85      -0.548900
     20 C38         -2.4950     0.3010     1.9980 c3         1 A85       0.049700
     21 C39         -3.7040    -0.3440     2.7020 c3         1 A85      -0.043100
     22 C40         -3.2540    -0.9500     4.0040 ca         1 A85      -0.091300
     23 C41         -3.4940    -0.3100     5.2160 ca         1 A85      -0.122000
     24 C42         -2.9980    -0.8300     6.4050 ca         1 A85      -0.121500
     25 C43         -2.2590    -2.0040     6.3960 ca         1 A85      -0.130000
     26 C44         -2.0240    -2.6580     5.1920 ca         1 A85      -0.121500
     27 C45         -2.5190    -2.1330     4.0070 ca         1 A85      -0.122000
     28 C46         -2.8640     1.0020     0.6790 c3         1 A85       0.404600
     29 F1          -3.4330     2.1940     0.9920 f          1 A85      -0.226300
     30 F2          -3.8370     0.2800     0.0510 f          1 A85      -0.226300
     31 C49         -1.7210     1.2420    -0.3540 c3         1 A85       0.338600
     32 O47         -0.5610     1.7100     0.2620 oh         1 A85      -0.598800
     33 O48         -2.1900     2.2530    -1.1680 oh         1 A85      -0.598800
     34 N50         -0.4370     0.4110    -2.2130 ns         1 A85      -0.567900
     35 C51         -1.4180    -0.0070    -1.2320 c3         1 A85       0.033700
     36 C52         -0.9380    -1.2750    -0.5020 c3         1 A85      -0.055100
     37 C53         -0.5100    -2.3240    -1.4920 ca         1 A85      -0.093300
     38 C54          0.8140    -2.4090    -1.9150 ca         1 A85      -0.123500
     39 C55          1.1850    -3.3010    -2.9120 ca         1 A85      -0.121500
     40 C56          0.2360    -4.1350    -3.4860 ca         1 A85      -0.124000
     41 C57         -1.0820    -4.0770    -3.0510 ca         1 A85      -0.121500
     42 C58         -1.4510    -3.1740    -2.0650 ca         1 A85      -0.123500
     43 N81          0.6810    -0.3860    -5.5620 ns         1 A85      -0.566900
     44 C82          0.7720     0.3060    -4.3070 c3         1 A85       0.036700
     45 O84         -1.5150    -0.3900    -4.0390 o          1 A85      -0.592100
     46 C85          1.0260     1.8220    -4.4750 c3         1 A85      -0.060700
     47 C86          2.3400     2.0670    -5.2050 c3         1 A85      -0.089100
     48 C87         -0.1220     2.5290    -5.1850 c3         1 A85      -0.089100
     49 O98          2.7540    -1.3020    -5.4390 o          1 A85      -0.648100
     50 N99          1.4010    -1.8890    -7.1620 n          1 A85      -0.462800
     51 C2           2.4830    -2.6430    -7.7640 c3         1 A85       0.099300
     52 C3           0.2980    -1.5090    -8.0130 c3         1 A85       0.048700
     53 C8           0.3980    -0.1040    -8.5660 ca         1 A85       0.378600
     54 C12         -0.7530     0.6360    -8.8190 ca         1 A85      -0.240300
     55 N10          1.6140     0.3680    -8.8070 nb         1 A85      -0.662000
     56 C13         -0.6260     1.9120    -9.3420 ca         1 A85      -0.088000
     57 C14          1.7290     1.5930    -9.3040 ca         1 A85       0.407200
     58 C15          0.6450     2.4080    -9.5910 ca         1 A85      -0.246300
     59 H12          1.5180     1.2940     9.0830 h1         1 A85       0.038700
     60 H13          0.4330    -0.0760     9.3570 h1         1 A85       0.038700
     61 H14          2.1660    -0.3380     9.1320 h1         1 A85       0.038700
     62 H15          1.2310    -1.9310     7.5900 h1         1 A85       0.062700
     63 H16          0.6610    -1.3870     6.0300 h1         1 A85       0.062700
     64 H17          3.4790    -2.7460     7.7160 ha         1 A85       0.141000
     65 H18          5.7440    -2.9140     6.6920 ha         1 A85       0.139000
     66 H19          4.4340    -0.1260     3.7170 h4         1 A85       0.024100
     67 H20          6.2350    -1.5630     4.6430 ha         1 A85       0.145000
     68 H28          1.3450     0.4700     4.9200 hn         1 A85       0.366500
     69 H29         -1.0220     2.2460     5.0170 h1         1 A85       0.078700
     70 H30          0.8550     3.6900     5.0300 hc         1 A85       0.067700
     71 H31          2.5370     3.8510     3.2940 hc         1 A85       0.040033
     72 H32          2.5970     2.2230     3.9490 hc         1 A85       0.040033
     73 H33          1.8420     2.5200     2.3810 hc         1 A85       0.040033
     74 H34         -0.4600     3.6950     2.2660 hc         1 A85       0.040033
     75 H35         -1.1730     4.3480     3.7410 hc         1 A85       0.040033
     76 H36          0.2840     5.0710     3.0670 hc         1 A85       0.040033
     77 H59         -2.4480     1.8060     3.4650 hn         1 A85       0.329500
     78 H60         -1.7800    -0.4950     1.7950 h1         1 A85       0.091700
     79 H61         -4.4830     0.4020     2.8770 hc         1 A85       0.070200
     80 H62         -4.1310    -1.1130     2.0580 hc         1 A85       0.070200
     81 H63         -4.0740     0.6060     5.2340 ha         1 A85       0.130000
     82 H64         -3.1880    -0.3170     7.3380 ha         1 A85       0.135000
     83 H65         -1.8680    -2.4080     7.3210 ha         1 A85       0.129000
     84 H66         -1.4550    -3.5790     5.1760 ha         1 A85       0.135000
     85 H67         -2.3310    -2.6520     3.0740 ha         1 A85       0.130000
     86 H68         -0.1630     1.0580     0.8630 ho         1 A85       0.446000
     87 H69         -1.6450     2.2730    -1.9660 ho         1 A85       0.446000
     88 H72          0.4780     0.6470    -1.8550 hn         1 A85       0.318500
     89 H73         -2.3230    -0.2620    -1.7830 h1         1 A85       0.109700
     90 H74         -0.1110    -1.0510     0.1770 hc         1 A85       0.059700
     91 H75         -1.7550    -1.6760     0.1010 hc         1 A85       0.059700
     92 H76          1.5620    -1.7660    -1.4670 ha         1 A85       0.128000
     93 H77          2.2130    -3.3340    -3.2470 ha         1 A85       0.137500
     94 H78          0.5210    -4.8300    -4.2650 ha         1 A85       0.132000
     95 H79         -1.8250    -4.7320    -3.4870 ha         1 A85       0.137500
     96 H80         -2.4840    -3.1230    -1.7430 ha         1 A85       0.128000
     97 H88         -0.2580    -0.5120    -5.9050 hn         1 A85       0.328500
     98 H89          1.6080    -0.1150    -3.7430 h1         1 A85       0.090700
     99 H90          1.1210     2.2420    -3.4680 hc         1 A85       0.045700
    100 H91          2.5580     3.1350    -5.2360 hc         1 A85       0.039533
    101 H92          3.1770     1.5670    -4.7170 hc         1 A85       0.039533
    102 H93          2.2870     1.7100    -6.2350 hc         1 A85       0.039533
    103 H94         -0.2780     2.1230    -6.1860 hc         1 A85       0.039533
    104 H95         -1.0650     2.4580    -4.6390 hc         1 A85       0.039533
    105 H96          0.1010     3.5910    -5.2960 hc         1 A85       0.039533
    106 H1           3.0130    -3.2250    -7.0150 h1         1 A85       0.042700
    107 H10          2.0620    -3.3380    -8.4880 h1         1 A85       0.042700
    108 H11          3.1990    -2.0010    -8.2830 h1         1 A85       0.042700
    109 H2           0.2690    -2.2120    -8.8470 h1         1 A85       0.062200
    110 H3          -0.6630    -1.6400    -7.5070 h1         1 A85       0.062200
    111 H4          -1.7280     0.2220    -8.5970 ha         1 A85       0.143000
    112 H5          -1.5050     2.5120    -9.5420 ha         1 A85       0.139000
    113 H6           2.7390     1.9480    -9.4830 h4         1 A85       0.021100
    114 H7           0.7970     3.4010    -9.9920 ha         1 A85       0.143000
    115 C83         -0.5090     0.0530    -3.5190 c          1 A85       0.653100
    116 C97          1.6770    -1.1980    -6.0140 c          1 A85       0.790100
@<TRIPOS>BOND
     1     1     2 2   
     2     1     3 1   
     3     1    12 1   
     4     3     4 1   
     5     3     5 1   
     6     4    59 1   
     7     4    60 1   
     8     4    61 1   
     9     5     6 1   
    10     5    62 1   
    11     5    63 1   
    12     6     7 ar  
    13     6     8 ar  
    14     7     9 ar  
    15     7    64 1   
    16     8    10 ar  
    17     9    11 ar  
    18     9    65 1   
    19    10    11 ar  
    20    10    66 1   
    21    11    67 1   
    22    12    13 1   
    23    12    68 1   
    24    13    14 1   
    25    13    16 1   
    26    13    69 1   
    27    14    15 2   
    28    14    19 1   
    29    16    17 1   
    30    16    18 1   
    31    16    70 1   
    32    17    71 1   
    33    17    72 1   
    34    17    73 1   
    35    18    74 1   
    36    18    75 1   
    37    18    76 1   
    38    19    20 1   
    39    19    77 1   
    40    20    21 1   
    41    20    28 1   
    42    20    78 1   
    43    21    22 1   
    44    21    79 1   
    45    21    80 1   
    46    22    23 ar  
    47    22    27 ar  
    48    23    24 ar  
    49    23    81 1   
    50    24    25 ar  
    51    24    82 1   
    52    25    26 ar  
    53    25    83 1   
    54    26    27 ar  
    55    26    84 1   
    56    27    85 1   
    57    28    29 1   
    58    28    30 1   
    59    28    31 1   
    60    31    32 1   
    61    31    33 1   
    62    31    35 1   
    63    32    86 1   
    64    33    87 1   
    65    34    35 1   
    66    34    88 1   
    67    34   115 1   
    68    35    36 1   
    69    35    89 1   
    70    36    37 1   
    71    36    90 1   
    72    36    91 1   
    73    37    38 ar  
    74    37    42 ar  
    75    38    39 ar  
    76    38    92 1   
    77    39    40 ar  
    78    39    93 1   
    79    40    41 ar  
    80    40    94 1   
    81    41    42 ar  
    82    41    95 1   
    83    42    96 1   
    84    43    44 1   
    85    43    97 1   
    86    43   116 1   
    87    44    46 1   
    88    44    98 1   
    89    44   115 1   
    90    45   115 2   
    91    46    47 1   
    92    46    48 1   
    93    46    99 1   
    94    47   100 1   
    95    47   101 1   
    96    47   102 1   
    97    48   103 1   
    98    48   104 1   
    99    48   105 1   
   100    49   116 2   
   101    50    51 1   
   102    50    52 1   
   103    50   116 1   
   104    51   106 1   
   105    51   107 1   
   106    51   108 1   
   107    52    53 1   
   108    52   109 1   
   109    52   110 1   
   110    53    54 ar  
   111    53    55 ar  
   112    54    56 ar  
   113    54   111 1   
   114    55    57 ar  
   115    56    58 ar  
   116    56   112 1   
   117    57    58 ar  
   118    57   113 1   
   119    58   114 1   
@<TRIPOS>SUBSTRUCTURE
     1 A85         1 TEMP              0 ****  ****    0 ROOT
