@<TRIPOS>MOLECULE
A85
  116   119     1     0     0
SMALL
No Charge or Current Charge


@<TRIPOS>ATOM
      1 C1           0.3420     0.4800     7.0740 c          1 A85       0.659100
      2 O2          -0.1040     1.4690     7.6350 o          1 A85      -0.652100
      3 N3           0.7770    -0.6520     7.7900 n          1 A85      -0.426800
      4 C4           0.7210    -0.6520     9.2690 c3         1 A85       0.103300
      5 C5           1.2370    -1.8970     7.1150 c3         1 A85       0.054700
      6 C6           2.5440    -1.7560     6.3400 ca         1 A85       0.326300
      7 C7           3.7680    -1.5660     7.0090 ca         1 A85      -0.151000
      8 N8           2.4450    -1.7850     4.9910 nb         1 A85      -0.683000
      9 C9           4.9420    -1.4060     6.2560 ca         1 A85      -0.068000
     10 C10          3.5780    -1.6320     4.2660 ca         1 A85       0.350900
     11 C11          4.8390    -1.4410     4.8560 ca         1 A85      -0.160000
     12 N21          0.4410     0.4070     5.7100 ns         1 A85      -0.520900
     13 C22         -0.0150     1.4510     4.7690 c3         1 A85       0.063700
     14 C23         -0.4740     0.7800     3.4390 c          1 A85       0.607100
     15 O24          0.0460    -0.2340     2.9880 o          1 A85      -0.635100
     16 C25          1.0730     2.5530     4.5810 c3         1 A85      -0.075700
     17 C26          2.4030     2.0140     3.9970 c3         1 A85      -0.092600
     18 C27          0.5570     3.7620     3.7660 c3         1 A85      -0.092600
     19 N37         -1.5710     1.3700     2.8350 ns         1 A85      -0.481900
     20 C38         -2.4540     0.6680     1.8790 c3         1 A85       0.049700
     21 C39         -3.6990     0.1430     2.6560 c3         1 A85      -0.043100
     22 C40         -3.3310    -0.5540     3.9650 ca         1 A85      -0.091300
     23 C41         -3.5020     0.1070     5.1990 ca         1 A85      -0.104000
     24 C42         -3.1020    -0.5100     6.3970 ca         1 A85      -0.103500
     25 C43         -2.5300    -1.7930     6.3700 ca         1 A85      -0.112000
     26 C44         -2.3630    -2.4600     5.1450 ca         1 A85      -0.103500
     27 C45         -2.7620    -1.8420     3.9470 ca         1 A85      -0.104000
     28 C46         -2.8160     1.5340     0.6180 c3         1 A85       0.162000
     29 F1          -3.2940     2.7220     1.0730 f          1 A85      -0.105000
     30 F2          -3.8490     0.9500    -0.0380 f          1 A85      -0.105000
     31 C49         -1.6470     1.8060    -0.4340 c3         1 A85       0.385000
     32 O47         -0.4520     2.2210     0.1990 oh         1 A85      -0.661000
     33 O48         -1.9790     2.9230    -1.2370 oh         1 A85      -0.661000
     34 N50         -0.3100     1.0600    -2.4380 ns         1 A85      -0.500900
     35 C51         -1.3200     0.6340    -1.4390 c3         1 A85       0.033700
     36 C52         -0.8810    -0.7200    -0.8050 c3         1 A85      -0.055100
     37 C53         -0.2960    -1.7060    -1.8170 ca         1 A85      -0.093300
     38 C54          1.1000    -1.8410    -1.9570 ca         1 A85      -0.105500
     39 C55          1.6360    -2.7020    -2.9310 ca         1 A85      -0.103500
     40 C56          0.7800    -3.4370    -3.7680 ca         1 A85      -0.106000
     41 C57         -0.6120    -3.3140    -3.6270 ca         1 A85      -0.103500
     42 C58         -1.1490    -2.4530    -2.6540 ca         1 A85      -0.105500
     43 N81          1.0300    -0.1410    -5.6060 ns         1 A85      -0.499900
     44 C82          0.9850     0.8810    -4.5410 c3         1 A85       0.036700
     45 O84         -1.3880     0.3340    -4.3130 o          1 A85      -0.592100
     46 C85          1.1960     2.3260    -5.0920 c3         1 A85      -0.060700
     47 C86          2.6500     2.5720    -5.5560 c3         1 A85      -0.089100
     48 C87          0.1900     2.7130    -6.2060 c3         1 A85      -0.089100
     49 O98          3.2270    -0.6980    -5.4670 o          1 A85      -0.648100
     50 N99          1.9040    -1.8650    -6.9510 n          1 A85      -0.395800
     51 C2           3.0300    -2.7020    -7.4190 c3         1 A85       0.099300
     52 C3           0.5540    -2.1300    -7.5310 c3         1 A85       0.048700
     53 C8          -0.0400    -0.9900    -8.3640 ca         1 A85       0.313300
     54 C12         -1.2660    -0.3980    -7.9990 ca         1 A85      -0.157000
     55 N10          0.6740    -0.5770    -9.4400 nb         1 A85      -0.662000
     56 C13         -1.7740     0.6630    -8.7650 ca         1 A85      -0.070000
     57 C14          0.1820     0.4460   -10.1770 ca         1 A85       0.341900
     58 C15         -1.0290     1.0910    -9.8750 ca         1 A85      -0.163000
     59 H12          1.1620     0.2740     9.6590 h1         1 A85       0.038700
     60 H13         -0.3240    -0.7190     9.5960 h1         1 A85       0.038700
     61 H14          1.2800    -1.5030     9.6800 h1         1 A85       0.038700
     62 H15          1.3680    -2.6930     7.8600 h1         1 A85       0.062700
     63 H16          0.4450    -2.2380     6.4360 h1         1 A85       0.062700
     64 H17          3.7990    -1.5370     8.0940 ha         1 A85       0.123000
     65 H18          5.9040    -1.2560     6.7430 ha         1 A85       0.121000
     66 H19          3.4690    -1.6600     3.1830 h4         1 A85       0.024100
     67 H20          5.7180    -1.3210     4.2300 ha         1 A85       0.127000
     68 H28          0.8590    -0.4360     5.3240 hn         1 A85       0.366500
     69 H29         -0.9080     1.9200     5.2040 h1         1 A85       0.078700
     70 H30          1.3050     2.9380     5.5820 hc         1 A85       0.067700
     71 H31          3.1460     2.8170     3.9260 hc         1 A85       0.040033
     72 H32          2.8240     1.2300     4.6360 hc         1 A85       0.040033
     73 H33          2.2560     1.5990     2.9920 hc         1 A85       0.040033
     74 H34          0.3810     3.4890     2.7200 hc         1 A85       0.040033
     75 H35         -0.3800     4.1460     4.1890 hc         1 A85       0.040033
     76 H36          1.2910     4.5770     3.7820 hc         1 A85       0.040033
     77 H59         -1.9430     2.1920     3.2970 hn         1 A85       0.329500
     78 H60         -1.9210    -0.2220     1.5380 h1         1 A85       0.091700
     79 H61         -4.3780     0.9810     2.8580 hc         1 A85       0.070200
     80 H62         -4.2600    -0.5520     2.0180 hc         1 A85       0.070200
     81 H63         -3.9320     1.1060     5.2310 ha         1 A85       0.112000
     82 H64         -3.2270     0.0090     7.3440 ha         1 A85       0.117000
     83 H65         -2.2160    -2.2680     7.2970 ha         1 A85       0.111000
     84 H66         -1.9170    -3.4520     5.1230 ha         1 A85       0.117000
     85 H67         -2.6130    -2.3590     3.0020 ha         1 A85       0.112000
     86 H68         -0.7390     2.7800     0.9470 ho         1 A85       0.485000
     87 H69         -1.4480     2.7940    -2.0500 ho         1 A85       0.485000
     88 H72          0.5810     1.3870    -2.0810 hn         1 A85       0.318500
     89 H73         -2.2520     0.4250    -1.9830 h1         1 A85       0.109700
     90 H74         -0.1480    -0.5290    -0.0120 hc         1 A85       0.059700
     91 H75         -1.7490    -1.1890    -0.3280 hc         1 A85       0.059700
     92 H76          1.7710    -1.2660    -1.3230 ha         1 A85       0.110000
     93 H77          2.7140    -2.7920    -3.0420 ha         1 A85       0.119500
     94 H78          1.1960    -4.0980    -4.5260 ha         1 A85       0.114000
     95 H79         -1.2760    -3.8810    -4.2760 ha         1 A85       0.119500
     96 H80         -2.2280    -2.3520    -2.5630 ha         1 A85       0.110000
     97 H88          0.1580    -0.3830    -6.0520 hn         1 A85       0.328500
     98 H89          1.7770     0.6600    -3.8130 h1         1 A85       0.090700
     99 H90          1.0220     3.0130    -4.2530 hc         1 A85       0.045700
    100 H91          2.8000     3.6270    -5.8150 hc         1 A85       0.039533
    101 H92          3.3610     2.3160    -4.7610 hc         1 A85       0.039533
    102 H93          2.8890     1.9700    -6.4410 hc         1 A85       0.039533
    103 H94          0.3340     2.0940    -7.1000 hc         1 A85       0.039533
    104 H95         -0.8450     2.5940    -5.8670 hc         1 A85       0.039533
    105 H96          0.3260     3.7610    -6.4980 hc         1 A85       0.039533
    106 H1           3.3230    -3.4010    -6.6260 h1         1 A85       0.042700
    107 H10          2.7470    -3.2730    -8.3130 h1         1 A85       0.042700
    108 H11          3.8870    -2.0650    -7.6720 h1         1 A85       0.042700
    109 H2           0.5990    -3.0230    -8.1670 h1         1 A85       0.062200
    110 H3          -0.1320    -2.3740    -6.7100 h1         1 A85       0.062200
    111 H4          -1.8170    -0.7560    -7.1320 ha         1 A85       0.125000
    112 H5          -2.7160     1.1410    -8.5050 ha         1 A85       0.121000
    113 H6           0.7780     0.7570   -11.0340 h4         1 A85       0.021100
    114 H7          -1.3790     1.9090   -10.4980 ha         1 A85       0.125000
    115 C83         -0.3610     0.7380    -3.7800 c          1 A85       0.586100
    116 C97          2.1290    -0.8780    -5.9710 c          1 A85       0.656100
@<TRIPOS>BOND
     1     1     2 2   
     2     1     3 1   
     3     1    12 1   
     4     3     4 1   
     5     3     5 1   
     6     4    59 1   
     7     4    60 1   
     8     4    61 1   
     9     5     6 1   
    10     5    62 1   
    11     5    63 1   
    12     6     7 ar  
    13     6     8 ar  
    14     7     9 ar  
    15     7    64 1   
    16     8    10 ar  
    17     9    11 ar  
    18     9    65 1   
    19    10    11 ar  
    20    10    66 1   
    21    11    67 1   
    22    12    13 1   
    23    12    68 1   
    24    13    14 1   
    25    13    16 1   
    26    13    69 1   
    27    14    15 2   
    28    14    19 1   
    29    16    17 1   
    30    16    18 1   
    31    16    70 1   
    32    17    71 1   
    33    17    72 1   
    34    17    73 1   
    35    18    74 1   
    36    18    75 1   
    37    18    76 1   
    38    19    20 1   
    39    19    77 1   
    40    20    21 1   
    41    20    28 1   
    42    20    78 1   
    43    21    22 1   
    44    21    79 1   
    45    21    80 1   
    46    22    23 ar  
    47    22    27 ar  
    48    23    24 ar  
    49    23    81 1   
    50    24    25 ar  
    51    24    82 1   
    52    25    26 ar  
    53    25    83 1   
    54    26    27 ar  
    55    26    84 1   
    56    27    85 1   
    57    28    29 1   
    58    28    30 1   
    59    28    31 1   
    60    31    32 1   
    61    31    33 1   
    62    31    35 1   
    63    32    86 1   
    64    33    87 1   
    65    34    35 1   
    66    34    88 1   
    67    34   115 1   
    68    35    36 1   
    69    35    89 1   
    70    36    37 1   
    71    36    90 1   
    72    36    91 1   
    73    37    38 ar  
    74    37    42 ar  
    75    38    39 ar  
    76    38    92 1   
    77    39    40 ar  
    78    39    93 1   
    79    40    41 ar  
    80    40    94 1   
    81    41    42 ar  
    82    41    95 1   
    83    42    96 1   
    84    43    44 1   
    85    43    97 1   
    86    43   116 1   
    87    44    46 1   
    88    44    98 1   
    89    44   115 1   
    90    45   115 2   
    91    46    47 1   
    92    46    48 1   
    93    46    99 1   
    94    47   100 1   
    95    47   101 1   
    96    47   102 1   
    97    48   103 1   
    98    48   104 1   
    99    48   105 1   
   100    49   116 2   
   101    50    51 1   
   102    50    52 1   
   103    50   116 1   
   104    51   106 1   
   105    51   107 1   
   106    51   108 1   
   107    52    53 1   
   108    52   109 1   
   109    52   110 1   
   110    53    54 ar  
   111    53    55 ar  
   112    54    56 ar  
   113    54   111 1   
   114    55    57 ar  
   115    56    58 ar  
   116    56   112 1   
   117    57    58 ar  
   118    57   113 1   
   119    58   114 1   
@<TRIPOS>SUBSTRUCTURE
     1 A85         1 TEMP              0 ****  ****    0 ROOT
