@<TRIPOS>MOLECULE
A86
  106   108     1     0     0
SMALL
abcg2


@<TRIPOS>ATOM
      1 C           -1.9250     0.9880     1.4410 c3         1 A86      -0.057900
      2 O            9.8760    -0.2250     1.5330 o          1 A86      -0.515100
      3 C1          -1.9970    -0.0480     0.3590 ce         1 A86      -0.053200
      4 C10          7.6790    -1.1140     0.1240 ce         1 A86      -0.105000
      5 C11          8.9300    -1.4900    -0.2290 cf         1 A86      -0.210400
      6 C12          9.2290    -2.4560    -1.3370 c3         1 A86      -0.045900
      7 C13         10.0570    -0.8750     0.5200 c          1 A86       0.574300
      8 C14         11.4600    -1.1290     0.0120 c3         1 A86      -0.163400
      9 C15         12.4620    -0.0150     0.2560 cx         1 A86       0.133000
     10 C16         12.2340     1.3020    -0.5340 c6         1 A86      -0.021000
     11 C17         13.5690     1.8750    -1.0390 c6         1 A86      -0.072400
     12 C18         14.6480     1.9120     0.0200 c6         1 A86       0.174300
     13 C19         15.0100     0.4850     0.3960 c6         1 A86      -0.102400
     14 C2          -0.9040    -0.6540    -0.1770 cf         1 A86      -0.186000
     15 C20         13.8220    -0.3910     0.7090 cx         1 A86       0.104000
     16 C21         14.2320    -1.8240     0.9620 c3         1 A86      -0.081100
     17 C22         11.5380     2.3500     0.3430 c3         1 A86      -0.084600
     18 C23         11.3610     1.0750    -1.7740 c3         1 A86      -0.084600
     19 C24         -3.3000    -0.4270    -0.1390 ce         1 A86      -0.181000
     20 C25         -4.4790     0.0770     0.2870 cf         1 A86      -0.163000
     21 C26         -5.7470    -0.3550    -0.2360 cf         1 A86      -0.187000
     22 C27         -6.9700     0.0940     0.1300 ce         1 A86      -0.048200
     23 C28         -7.2190     1.1570     1.1540 c3         1 A86      -0.057900
     24 C29         -8.1440    -0.5000    -0.5010 ce         1 A86      -0.198100
     25 C3           0.4650    -0.4320     0.1790 cf         1 A86      -0.158000
     26 C30         -9.3790    -0.1660    -0.2110 c1         1 A86      -0.013800
     27 C31        -10.6030     0.1570     0.0900 c2         1 A86      -0.107500
     28 C32        -11.3520    -0.5660     1.2130 c6         1 A86       0.013200
     29 C33        -12.7380    -0.9830     0.6930 c6         1 A86      -0.072400
     30 C34        -13.4880     0.1610     0.0390 c6         1 A86       0.183300
     31 C35        -12.6990     0.7140    -1.1350 c6         1 A86      -0.129400
     32 C36        -11.3250     1.2470    -0.7000 c6         1 A86       0.239200
     33 C37        -10.5440     1.6860    -1.9330 c3         1 A86      -0.119100
     34 C39        -16.9760    -0.3030    -1.1160 c3         1 A86      -0.157100
     35 C4           1.4960    -1.0810    -0.4130 ce         1 A86      -0.183000
     36 C40        -10.6080    -1.8320     1.6380 c3         1 A86      -0.083100
     37 C41        -11.4830     0.3320     2.4520 c3         1 A86      -0.083100
     38 C5           2.8620    -0.8560    -0.0450 ce         1 A86      -0.158000
     39 C6           3.9640    -1.4460    -0.5810 cf         1 A86      -0.080200
     40 C7           3.9160    -2.4580    -1.6860 c3         1 A86      -0.053900
     41 C8           5.2520    -1.0710    -0.0510 cf         1 A86      -0.141000
     42 C9           6.4470    -1.5460    -0.4710 ce         1 A86      -0.203000
     43 O1          12.8710     0.1600     1.6070 op         1 A86      -0.413000
     44 O2          15.7630     2.6030    -0.5120 oh         1 A86      -0.662000
     45 O3         -11.4770     2.3450     0.1860 oh         1 A86      -0.654000
     46 O4         -14.7390    -0.3810    -0.4210 os         1 A86      -0.456100
     47 O5         -15.7650     1.6050    -0.3140 o          1 A86      -0.494000
     48 H1          -2.3770     1.9270     1.1120 hc         1 A86       0.043700
     49 H2          -2.4780     0.6650     2.3250 hc         1 A86       0.043700
     50 H3          -0.9080     1.2070     1.7530 hc         1 A86       0.043700
     51 H4           7.5830    -0.3980     0.9340 ha         1 A86       0.192000
     52 H5           9.6180    -1.9490    -2.2240 hc         1 A86       0.041033
     53 H6           9.9760    -3.1940    -1.0400 hc         1 A86       0.041033
     54 H7           8.3450    -3.0080    -1.6480 hc         1 A86       0.041033
     55 H8          11.7770    -2.0540     0.5030 hc         1 A86       0.070200
     56 H9          11.4610    -1.3740    -1.0480 hc         1 A86       0.070200
     57 H10         13.9290     1.2710    -1.8810 hc         1 A86       0.054700
     58 H11         13.3880     2.8820    -1.4260 hc         1 A86       0.054700
     59 H12         14.2750     2.4390     0.9070 h1         1 A86       0.048700
     60 H13         15.5500     0.0300    -0.4420 hc         1 A86       0.055200
     61 H14         15.6930     0.4680     1.2530 hc         1 A86       0.055200
     62 H15         -1.0730    -1.3900    -0.9590 ha         1 A86       0.170000
     63 H16         14.4970    -2.3160     0.0260 hc         1 A86       0.046700
     64 H17         15.1130    -1.8490     1.6070 hc         1 A86       0.046700
     65 H18         13.4590    -2.4130     1.4510 hc         1 A86       0.046700
     66 H19         12.1030     2.5940     1.2410 hc         1 A86       0.039867
     67 H20         11.4190     3.2720    -0.2300 hc         1 A86       0.039867
     68 H21         10.5470     2.0260     0.6550 hc         1 A86       0.039867
     69 H22         10.3430     0.7680    -1.5240 hc         1 A86       0.039867
     70 H23         11.2790     2.0090    -2.3330 hc         1 A86       0.039867
     71 H24         11.7860     0.3300    -2.4490 hc         1 A86       0.039867
     72 H25         -3.3140    -1.1850    -0.9180 ha         1 A86       0.171000
     73 H26         -4.4800     0.8320     1.0630 ha         1 A86       0.175000
     74 H27         -5.7060    -1.1290    -0.9980 ha         1 A86       0.169000
     75 H28         -7.8010     0.7600     1.9900 hc         1 A86       0.046700
     76 H29         -6.3060     1.5860     1.5590 hc         1 A86       0.046700
     77 H30         -7.8090     1.9700     0.7270 hc         1 A86       0.046700
     78 H31         -7.9740    -1.2730    -1.2460 ha         1 A86       0.188000
     79 H32          0.6920     0.2870     0.9600 ha         1 A86       0.173000
     80 H33        -12.6130    -1.7870    -0.0410 hc         1 A86       0.054700
     81 H34        -13.3200    -1.3910     1.5240 hc         1 A86       0.054700
     82 H35        -13.6860     0.9500     0.7660 h1         1 A86       0.077700
     83 H36        -12.5530    -0.0790    -1.8750 hc         1 A86       0.058200
     84 H37        -13.2500     1.5180    -1.6330 hc         1 A86       0.058200
     85 H38        -11.0890     2.4780    -2.4520 hc         1 A86       0.046367
     86 H39         -9.5620     2.0750    -1.6600 hc         1 A86       0.046367
     87 H40        -10.4020     0.8670    -2.6380 hc         1 A86       0.046367
     88 H41        -16.9600    -0.2290    -2.2060 hc         1 A86       0.068700
     89 H42        -16.9750    -1.3580    -0.8540 hc         1 A86       0.068700
     90 H43        -17.8940     0.1620    -0.7670 hc         1 A86       0.068700
     91 H44          1.2750    -1.7990    -1.1960 ha         1 A86       0.174000
     92 H45         -9.6220    -1.6000     2.0430 hc         1 A86       0.039700
     93 H46        -11.1740    -2.3480     2.4160 hc         1 A86       0.039700
     94 H47        -10.4740    -2.5240     0.8050 hc         1 A86       0.039700
     95 H48        -12.0780     1.2240     2.2760 hc         1 A86       0.039700
     96 H49        -11.9540    -0.2310     3.2610 hc         1 A86       0.039700
     97 H50        -10.4990     0.6530     2.7960 hc         1 A86       0.039700
     98 H51          3.0200    -0.1330     0.7510 ha         1 A86       0.171000
     99 H52          4.4790    -2.1130    -2.5560 hc         1 A86       0.042700
    100 H53          4.3690    -3.4010    -1.3710 hc         1 A86       0.042700
    101 H54          2.9050    -2.6750    -2.0180 hc         1 A86       0.042700
    102 H55          5.2450    -0.3420     0.7550 ha         1 A86       0.174000
    103 H56          6.4810    -2.2670    -1.2780 ha         1 A86       0.178000
    104 H57         16.4340     2.6630     0.1750 ho         1 A86       0.442000
    105 H58        -11.9800     3.0290    -0.2720 ho         1 A86       0.446000
    106 C38        -15.7840     0.4260    -0.5680 c          1 A86       0.597100
@<TRIPOS>BOND
     1     1     3 1   
     2     1    48 1   
     3     1    49 1   
     4     1    50 1   
     5     2     7 2   
     6     3    14 2   
     7     3    19 1   
     8     4     5 2   
     9     4    42 1   
    10     4    51 1   
    11     5     6 1   
    12     5     7 1   
    13     6    52 1   
    14     6    53 1   
    15     6    54 1   
    16     7     8 1   
    17     8     9 1   
    18     8    55 1   
    19     8    56 1   
    20     9    10 1   
    21     9    15 1   
    22     9    43 1   
    23    10    11 1   
    24    10    17 1   
    25    10    18 1   
    26    11    12 1   
    27    11    57 1   
    28    11    58 1   
    29    12    13 1   
    30    12    44 1   
    31    12    59 1   
    32    13    15 1   
    33    13    60 1   
    34    13    61 1   
    35    14    25 1   
    36    14    62 1   
    37    15    16 1   
    38    15    43 1   
    39    16    63 1   
    40    16    64 1   
    41    16    65 1   
    42    17    66 1   
    43    17    67 1   
    44    17    68 1   
    45    18    69 1   
    46    18    70 1   
    47    18    71 1   
    48    19    20 2   
    49    19    72 1   
    50    20    21 1   
    51    20    73 1   
    52    21    22 2   
    53    21    74 1   
    54    22    23 1   
    55    22    24 1   
    56    23    75 1   
    57    23    76 1   
    58    23    77 1   
    59    24    26 2   
    60    24    78 1   
    61    25    35 2   
    62    25    79 1   
    63    26    27 2   
    64    27    28 1   
    65    27    32 1   
    66    28    29 1   
    67    28    36 1   
    68    28    37 1   
    69    29    30 1   
    70    29    80 1   
    71    29    81 1   
    72    30    31 1   
    73    30    46 1   
    74    30    82 1   
    75    31    32 1   
    76    31    83 1   
    77    31    84 1   
    78    32    33 1   
    79    32    45 1   
    80    33    85 1   
    81    33    86 1   
    82    33    87 1   
    83    34    88 1   
    84    34    89 1   
    85    34    90 1   
    86    34   106 1   
    87    35    38 1   
    88    35    91 1   
    89    36    92 1   
    90    36    93 1   
    91    36    94 1   
    92    37    95 1   
    93    37    96 1   
    94    37    97 1   
    95    38    39 2   
    96    38    98 1   
    97    39    40 1   
    98    39    41 1   
    99    40    99 1   
   100    40   100 1   
   101    40   101 1   
   102    41    42 2   
   103    41   102 1   
   104    42   103 1   
   105    44   104 1   
   106    45   105 1   
   107    46   106 1   
   108    47   106 2   
@<TRIPOS>SUBSTRUCTURE
     1 A86         1 TEMP              0 ****  ****    0 ROOT
