@<TRIPOS>MOLECULE
A86
  106   108     1     0     0
SMALL
No Charge or Current Charge


@<TRIPOS>ATOM
      1 C           -1.9380     1.0720     1.0930 c3         1 A86      -0.057900
      2 O           10.1700    -0.6290     1.9970 o          1 A86      -0.515100
      3 C1          -1.9630    -0.0170     0.0230 ce         1 A86      -0.053200
      4 C10          7.9090    -1.2590     0.4350 ce         1 A86      -0.105000
      5 C11          9.1790    -1.6430     0.0800 cf         1 A86      -0.210400
      6 C12          9.4370    -2.6230    -1.0700 c3         1 A86      -0.045900
      7 C13         10.3570    -1.1520     0.9040 c          1 A86       0.574300
      8 C14         11.7990    -1.3480     0.3850 c3         1 A86      -0.163400
      9 C15         12.6560    -0.0350     0.3810 cx         1 A86       0.133000
     10 C16         12.1730     1.1380    -0.5700 c6         1 A86      -0.021000
     11 C17         13.4020     2.0110    -1.0600 c6         1 A86      -0.072400
     12 C18         14.4950     2.3220     0.0130 c6         1 A86       0.174300
     13 C19         15.1310     0.9870     0.4400 c6         1 A86      -0.102400
     14 C2          -0.8360    -0.6560    -0.4110 cf         1 A86      -0.186000
     15 C20         14.1020    -0.0760     0.8810 cx         1 A86       0.104000
     16 C21         14.7420    -1.3920     1.3210 c3         1 A86      -0.081100
     17 C22         11.1610     2.0720     0.1720 c3         1 A86      -0.084600
     18 C23         11.4410     0.6230    -1.8520 c3         1 A86      -0.084600
     19 C24         -3.2680    -0.3260    -0.5980 ce         1 A86      -0.181000
     20 C25         -4.5030     0.0320    -0.1450 cf         1 A86      -0.163000
     21 C26         -5.7510    -0.3280    -0.8140 cf         1 A86      -0.187000
     22 C27         -7.0170     0.0320    -0.4470 ce         1 A86      -0.048200
     23 C28         -7.2920     0.9520     0.7440 c3         1 A86      -0.057900
     24 C29         -8.1700    -0.4310    -1.2470 ce         1 A86      -0.198100
     25 C3           0.5290    -0.4800     0.0810 cf         1 A86      -0.158000
     26 C30         -9.5190    -0.2680    -0.8470 c1         1 A86      -0.013800
     27 C31        -10.7700    -0.1050    -0.4430 c2         1 A86      -0.107500
     28 C32        -11.3620    -0.9650     0.6990 c6         1 A86       0.013200
     29 C33        -12.9150    -1.0550     0.5870 c6         1 A86      -0.072400
     30 C34        -13.6080     0.3160     0.4250 c6         1 A86       0.183300
     31 C35        -13.1460     0.9870    -0.8870 c6         1 A86      -0.129400
     32 C36        -11.5920     1.2150    -0.8880 c6         1 A86       0.239200
     33 C37        -11.2010     1.7180    -2.3350 c3         1 A86      -0.119100
     34 C39        -17.3500     0.7190     0.5070 c3         1 A86      -0.157100
     35 C4           1.6150    -1.1100    -0.4420 ce         1 A86      -0.183000
     36 C40        -10.7920    -2.4230     0.6630 c3         1 A86      -0.083100
     37 C41        -10.9350    -0.3480     2.0690 c3         1 A86      -0.083100
     38 C5           2.9900    -0.9330     0.0520 ce         1 A86      -0.158000
     39 C6           4.1160    -1.5750    -0.3830 cf         1 A86      -0.080200
     40 C7           4.0780    -2.6650    -1.4510 c3         1 A86      -0.053900
     41 C8           5.4140    -1.2700     0.2300 cf         1 A86      -0.141000
     42 C9           6.6480    -1.6220    -0.2330 ce         1 A86      -0.203000
     43 O1          13.0340     0.4030     1.7150 op         1 A86      -0.413000
     44 O2          15.4930     3.1890    -0.5360 oh         1 A86      -0.662000
     45 O3         -11.3320     2.3500    -0.0140 oh         1 A86      -0.654000
     46 O4         -15.0360     0.1180     0.4180 os         1 A86      -0.456100
     47 O5         -15.5570     2.3170     0.8350 o          1 A86      -0.494000
     48 H1          -2.7010     1.8390     0.9150 hc         1 A86       0.043700
     49 H2          -2.1110     0.6500     2.0900 hc         1 A86       0.043700
     50 H3          -0.9850     1.6100     1.1180 hc         1 A86       0.043700
     51 H4           7.7940    -0.5920     1.2930 ha         1 A86       0.192000
     52 H5           9.6750    -2.0980    -2.0020 hc         1 A86       0.041033
     53 H6          10.2610    -3.3100    -0.8460 hc         1 A86       0.041033
     54 H7           8.5790    -3.2740    -1.2670 hc         1 A86       0.041033
     55 H8          12.1990    -2.1730     1.0080 hc         1 A86       0.070200
     56 H9          11.8070    -1.7580    -0.6260 hc         1 A86       0.070200
     57 H10         13.8940     1.4960    -1.8980 hc         1 A86       0.054700
     58 H11         13.0360     2.9560    -1.4840 hc         1 A86       0.054700
     59 H12         14.0180     2.7980     0.8840 h1         1 A86       0.048700
     60 H13         15.7150     0.5740    -0.3950 hc         1 A86       0.055200
     61 H14         15.8430     1.1610     1.2590 hc         1 A86       0.055200
     62 H15         -0.9550    -1.3960    -1.2050 ha         1 A86       0.170000
     63 H16         14.8200    -2.0870     0.4770 hc         1 A86       0.046700
     64 H17         15.7540    -1.2340     1.7140 hc         1 A86       0.046700
     65 H18         14.1630    -1.8780     2.1150 hc         1 A86       0.046700
     66 H19         11.5930     2.5020     1.0830 hc         1 A86       0.039867
     67 H20         10.8540     2.9120    -0.4630 hc         1 A86       0.039867
     68 H21         10.2440     1.5460     0.4580 hc         1 A86       0.039867
     69 H22         10.4770     0.1580    -1.6210 hc         1 A86       0.039867
     70 H23         11.2310     1.4460    -2.5460 hc         1 A86       0.039867
     71 H24         12.0500    -0.1100    -2.3950 hc         1 A86       0.039867
     72 H25         -3.2250    -0.9220    -1.5110 ha         1 A86       0.171000
     73 H26         -4.5780     0.6000     0.7830 ha         1 A86       0.175000
     74 H27         -5.6470    -0.9640    -1.6960 ha         1 A86       0.169000
     75 H28         -7.3220     0.3830     1.6800 hc         1 A86       0.046700
     76 H29         -6.5210     1.7240     0.8470 hc         1 A86       0.046700
     77 H30         -8.2390     1.4960     0.6560 hc         1 A86       0.046700
     78 H31         -7.9630    -1.0110    -2.1470 ha         1 A86       0.188000
     79 H32          0.6880     0.1890     0.9280 ha         1 A86       0.173000
     80 H33        -13.1830    -1.6870    -0.2710 hc         1 A86       0.054700
     81 H34        -13.3210    -1.5620     1.4720 hc         1 A86       0.054700
     82 H35        -13.3490     0.9530     1.2830 h1         1 A86       0.077700
     83 H36        -13.4220     0.3430    -1.7330 hc         1 A86       0.058200
     84 H37        -13.6700     1.9400    -1.0410 hc         1 A86       0.058200
     85 H38        -11.8130     2.5730    -2.6480 hc         1 A86       0.046367
     86 H39        -10.1510     2.0330    -2.3820 hc         1 A86       0.046367
     87 H40        -11.3410     0.9230    -3.0760 hc         1 A86       0.046367
     88 H41        -17.5030     0.2260    -0.4590 hc         1 A86       0.068700
     89 H42        -17.5160    -0.1020     1.2140 hc         1 A86       0.068700
     90 H43        -18.0560     1.5420     0.6640 hc         1 A86       0.068700
     91 H44          1.4600    -1.7790    -1.2890 ha         1 A86       0.174000
     92 H45         -9.7100    -2.4500     0.8420 hc         1 A86       0.039700
     93 H46        -11.2580    -3.0520     1.4320 hc         1 A86       0.039700
     94 H47        -10.9800    -2.9000    -0.3070 hc         1 A86       0.039700
     95 H48        -11.2780     0.6860     2.1810 hc         1 A86       0.039700
     96 H49        -11.3430    -0.9210     2.9100 hc         1 A86       0.039700
     97 H50         -9.8440    -0.3380     2.1790 hc         1 A86       0.039700
     98 H51          3.1070    -0.1910     0.8450 ha         1 A86       0.171000
     99 H52          4.2250    -2.2420    -2.4520 hc         1 A86       0.042700
    100 H53          4.8510    -3.4250    -1.2900 hc         1 A86       0.042700
    101 H54          3.1290    -3.2110    -1.4530 hc         1 A86       0.042700
    102 H55          5.3770    -0.6810     1.1500 ha         1 A86       0.174000
    103 H56          6.7180    -2.1770    -1.1670 ha         1 A86       0.178000
    104 H57         16.1180     3.3970     0.1930 ho         1 A86       0.442000
    105 H58        -11.7820     3.1240    -0.4140 ho         1 A86       0.446000
    106 C38        -15.8990     1.1650     0.6050 c          1 A86       0.597100
@<TRIPOS>BOND
     1     1     3 1   
     2     1    48 1   
     3     1    49 1   
     4     1    50 1   
     5     2     7 2   
     6     3    14 2   
     7     3    19 1   
     8     4     5 2   
     9     4    42 1   
    10     4    51 1   
    11     5     6 1   
    12     5     7 1   
    13     6    52 1   
    14     6    53 1   
    15     6    54 1   
    16     7     8 1   
    17     8     9 1   
    18     8    55 1   
    19     8    56 1   
    20     9    10 1   
    21     9    15 1   
    22     9    43 1   
    23    10    11 1   
    24    10    17 1   
    25    10    18 1   
    26    11    12 1   
    27    11    57 1   
    28    11    58 1   
    29    12    13 1   
    30    12    44 1   
    31    12    59 1   
    32    13    15 1   
    33    13    60 1   
    34    13    61 1   
    35    14    25 1   
    36    14    62 1   
    37    15    16 1   
    38    15    43 1   
    39    16    63 1   
    40    16    64 1   
    41    16    65 1   
    42    17    66 1   
    43    17    67 1   
    44    17    68 1   
    45    18    69 1   
    46    18    70 1   
    47    18    71 1   
    48    19    20 2   
    49    19    72 1   
    50    20    21 1   
    51    20    73 1   
    52    21    22 2   
    53    21    74 1   
    54    22    23 1   
    55    22    24 1   
    56    23    75 1   
    57    23    76 1   
    58    23    77 1   
    59    24    26 2   
    60    24    78 1   
    61    25    35 2   
    62    25    79 1   
    63    26    27 2   
    64    27    28 1   
    65    27    32 1   
    66    28    29 1   
    67    28    36 1   
    68    28    37 1   
    69    29    30 1   
    70    29    80 1   
    71    29    81 1   
    72    30    31 1   
    73    30    46 1   
    74    30    82 1   
    75    31    32 1   
    76    31    83 1   
    77    31    84 1   
    78    32    33 1   
    79    32    45 1   
    80    33    85 1   
    81    33    86 1   
    82    33    87 1   
    83    34    88 1   
    84    34    89 1   
    85    34    90 1   
    86    34   106 1   
    87    35    38 1   
    88    35    91 1   
    89    36    92 1   
    90    36    93 1   
    91    36    94 1   
    92    37    95 1   
    93    37    96 1   
    94    37    97 1   
    95    38    39 2   
    96    38    98 1   
    97    39    40 1   
    98    39    41 1   
    99    40    99 1   
   100    40   100 1   
   101    40   101 1   
   102    41    42 2   
   103    41   102 1   
   104    42   103 1   
   105    44   104 1   
   106    45   105 1   
   107    46   106 1   
   108    47   106 2   
@<TRIPOS>SUBSTRUCTURE
     1 A86         1 TEMP              0 ****  ****    0 ROOT
