@<TRIPOS>MOLECULE
A87
   62    64     1     0     0
SMALL
abcg2


@<TRIPOS>ATOM
      1 C01         18.0190    49.4280    39.8330 c3         1 A87      -0.088100
      2 C02         19.0090    48.3740    40.3090 c3         1 A87      -0.076400
      3 C03         18.4290    46.9650    40.2880 c3         1 A87      -0.081400
      4 C04         19.4300    45.9200    40.7620 c3         1 A87       0.185800
      5 C06         19.5390    43.6590    41.6500 c3         1 A87       0.178800
      6 C07         21.0520    43.4740    41.5020 c3         1 A87      -0.112400
      7 C08         21.5690    42.2540    42.2740 c3         1 A87      -0.052700
      8 C09         21.2530    40.9530    41.5240 c3         1 A87      -0.067400
      9 C10         20.9990    39.7540    42.4330 c3         1 A87      -0.068900
     10 C11         22.2120    39.2030    43.1740 c3         1 A87      -0.069900
     11 C12         23.0460    40.2220    43.9490 c3         1 A87      -0.069900
     12 C13         23.8170    41.1830    43.0400 c3         1 A87      -0.068900
     13 C14         23.0580    42.4310    42.5850 c3         1 A87      -0.067400
     14 C15         18.7450    44.0230    39.3810 c3         1 A87       0.185800
     15 C16         17.3210    43.5250    39.1010 c3         1 A87      -0.001200
     16 C17         16.8870    42.4160    39.9980 cc         1 A87      -0.114400
     17 C18         16.0380    42.4940    41.0610 cd         1 A87      -0.157100
     18 C20         16.7440    40.3780    41.0410 ca         1 A87      -0.008200
     19 C21         17.3520    41.0570    39.9640 ca         1 A87      -0.135800
     20 C22         18.2230    40.3430    39.1350 ca         1 A87      -0.028000
     21 C23         18.4660    39.0090    39.3850 ca         1 A87      -0.171000
     22 C24         17.8500    38.3550    40.4690 ca         1 A87       0.156100
     23 C26         16.9810    39.0290    41.3100 ca         1 A87      -0.238000
     24 N05         18.9010    44.5700    40.7180 n3         1 A87      -0.751600
     25 N19         15.9500    41.2740    41.6880 na         1 A87      -0.231700
     26 O25         18.1560    37.0470    40.6410 oh         1 A87      -0.537100
     27 H1          18.4570    50.4260    39.8490 hc         1 A87       0.031367
     28 H2          17.6920    49.2270    38.8110 hc         1 A87       0.031367
     29 H3          17.1290    49.4480    40.4640 hc         1 A87       0.031367
     30 H4          19.3400    48.6150    41.3240 hc         1 A87       0.035200
     31 H5          19.9050    48.4060    39.6830 hc         1 A87       0.035200
     32 H6          18.0940    46.7330    39.2710 hc         1 A87       0.043700
     33 H7          17.5390    46.9190    40.9220 hc         1 A87       0.043700
     34 H8          20.3630    46.0260    40.1820 h1         1 A87       0.026200
     35 H9          19.6960    46.1420    41.8000 h1         1 A87       0.026200
     36 H10         19.3330    44.0040    42.6700 h1         1 A87       0.053700
     37 H11         19.0370    42.6930    41.5570 h1         1 A87       0.053700
     38 H12         21.3260    43.3650    40.4460 hc         1 A87       0.037200
     39 H13         21.5590    44.3780    41.8530 hc         1 A87       0.037200
     40 H14         21.0290    42.2180    43.2300 hc         1 A87       0.044700
     41 H15         22.0550    40.7320    40.8090 hc         1 A87       0.036950
     42 H16         20.3550    41.0960    40.9160 hc         1 A87       0.036950
     43 H17         20.2280    40.0340    43.1600 hc         1 A87       0.036200
     44 H18         20.5640    38.9440    41.8410 hc         1 A87       0.036200
     45 H19         21.8700    38.4220    43.8590 hc         1 A87       0.034200
     46 H20         22.8740    38.7030    42.4570 hc         1 A87       0.034200
     47 H21         22.4170    40.7750    44.6550 hc         1 A87       0.034200
     48 H22         23.7640    39.6710    44.5610 hc         1 A87       0.034200
     49 H23         24.1550    40.6200    42.1640 hc         1 A87       0.036200
     50 H24         24.7300    41.5100    43.5440 hc         1 A87       0.036200
     51 H25         23.5590    42.8310    41.6970 hc         1 A87       0.036950
     52 H26         23.1490    43.2090    43.3500 hc         1 A87       0.036950
     53 H27         19.4570    43.2080    39.2000 h1         1 A87       0.031200
     54 H28         18.9860    44.7870    38.6360 h1         1 A87       0.031200
     55 H29         16.6340    44.3690    39.1970 hc         1 A87       0.045200
     56 H30         17.2740    43.2020    38.0560 hc         1 A87       0.045200
     57 H31         15.4820    43.3410    41.4330 h4         1 A87       0.215000
     58 H32         18.7110    40.8300    38.2990 ha         1 A87       0.115000
     59 H33         19.1410    38.4480    38.7500 ha         1 A87       0.126000
     60 H34         16.5040    38.5290    42.1460 ha         1 A87       0.113000
     61 H36         15.3800    41.0760    42.4930 hn         1 A87       0.348000
     62 H37         17.6870    36.6920    41.4040 ho         1 A87       0.460000
@<TRIPOS>BOND
     1     1     2 1   
     2     1    27 1   
     3     1    28 1   
     4     1    29 1   
     5     2     3 1   
     6     2    30 1   
     7     2    31 1   
     8     3     4 1   
     9     3    32 1   
    10     3    33 1   
    11     4    24 1   
    12     4    34 1   
    13     4    35 1   
    14     5     6 1   
    15     5    24 1   
    16     5    36 1   
    17     5    37 1   
    18     6     7 1   
    19     6    38 1   
    20     6    39 1   
    21     7     8 1   
    22     7    13 1   
    23     7    40 1   
    24     8     9 1   
    25     8    41 1   
    26     8    42 1   
    27     9    10 1   
    28     9    43 1   
    29     9    44 1   
    30    10    11 1   
    31    10    45 1   
    32    10    46 1   
    33    11    12 1   
    34    11    47 1   
    35    11    48 1   
    36    12    13 1   
    37    12    49 1   
    38    12    50 1   
    39    13    51 1   
    40    13    52 1   
    41    14    15 1   
    42    14    24 1   
    43    14    53 1   
    44    14    54 1   
    45    15    16 1   
    46    15    55 1   
    47    15    56 1   
    48    16    17 2   
    49    16    19 1   
    50    17    25 1   
    51    17    57 1   
    52    18    19 ar  
    53    18    23 ar  
    54    18    25 1   
    55    19    20 ar  
    56    20    21 ar  
    57    20    58 1   
    58    21    22 ar  
    59    21    59 1   
    60    22    23 ar  
    61    22    26 1   
    62    23    60 1   
    63    25    61 1   
    64    26    62 1   
@<TRIPOS>SUBSTRUCTURE
     1 A87         1 TEMP              0 ****  ****    0 ROOT
