@<TRIPOS>MOLECULE
A87
   62    64     1     0     0
SMALL
No Charge or Current Charge


@<TRIPOS>ATOM
      1 C01         19.0240    49.7460    39.4970 c3         1 A87      -0.088100
      2 C02         19.6820    48.4800    40.0790 c3         1 A87      -0.076400
      3 C03         18.7280    47.2670    40.1240 c3         1 A87      -0.081400
      4 C04         19.3980    46.0000    40.7090 c3         1 A87       0.185800
      5 C06         19.0610    43.8520    41.8920 c3         1 A87       0.178800
      6 C07         20.2880    43.0610    41.3550 c3         1 A87      -0.112400
      7 C08         21.0060    42.1570    42.4000 c3         1 A87      -0.052700
      8 C09         20.1170    40.9850    42.9080 c3         1 A87      -0.067400
      9 C10         20.4180    40.5500    44.3630 c3         1 A87      -0.068900
     10 C11         21.7490    39.8050    44.5950 c3         1 A87      -0.069900
     11 C12         23.0180    40.5260    44.0870 c3         1 A87      -0.069900
     12 C13         23.1280    40.5520    42.5470 c3         1 A87      -0.068900
     13 C14         22.3750    41.6940    41.8220 c3         1 A87      -0.067400
     14 C15         17.9060    44.2660    39.6980 c3         1 A87       0.185800
     15 C16         16.6770    43.3280    39.8600 c3         1 A87      -0.001200
     16 C17         16.9520    41.9190    40.3320 cc         1 A87      -0.114400
     17 C18         16.4490    41.3080    41.4780 cd         1 A87      -0.157100
     18 C20         17.7150    39.7880    40.4440 ca         1 A87      -0.008200
     19 C21         17.7480    40.9170    39.6750 ca         1 A87      -0.135800
     20 C22         18.4700    40.9690    38.4720 ca         1 A87      -0.028000
     21 C23         19.1840    39.8170    38.0820 ca         1 A87      -0.171000
     22 C24         19.1580    38.6560    38.8850 ca         1 A87       0.156100
     23 C26         18.4140    38.6300    40.0800 ca         1 A87      -0.238000
     24 N05         18.4800    44.8530    40.9500 n3         1 A87      -0.751600
     25 N19         16.9250    39.9770    41.5600 na         1 A87      -0.231700
     26 O25         19.8520    37.5520    38.4960 oh         1 A87      -0.537100
     27 H1          19.7380    50.5780    39.4860 hc         1 A87       0.031367
     28 H2          18.6880    49.5700    38.4680 hc         1 A87       0.031367
     29 H3          18.1570    50.0450    40.0990 hc         1 A87       0.031367
     30 H4          20.0400    48.7000    41.0930 hc         1 A87       0.035200
     31 H5          20.5640    48.2270    39.4770 hc         1 A87       0.035200
     32 H6          18.3720    47.0680    39.1080 hc         1 A87       0.043700
     33 H7          17.8520    47.5200    40.7330 hc         1 A87       0.043700
     34 H8          20.2120    45.6980    40.0370 h1         1 A87       0.026200
     35 H9          19.8620    46.2910    41.6610 h1         1 A87       0.026200
     36 H10         19.3730    44.3690    42.8100 h1         1 A87       0.053700
     37 H11         18.2810    43.1500    42.2040 h1         1 A87       0.053700
     38 H12         19.9830    42.4410    40.5050 hc         1 A87       0.037200
     39 H13         21.0220    43.7770    40.9680 hc         1 A87       0.037200
     40 H14         21.2250    42.8010    43.2620 hc         1 A87       0.044700
     41 H15         20.1980    40.1260    42.2300 hc         1 A87       0.036950
     42 H16         19.0660    41.2840    42.8870 hc         1 A87       0.036950
     43 H17         20.3840    41.4320    45.0150 hc         1 A87       0.036200
     44 H18         19.6040    39.8970    44.7010 hc         1 A87       0.036200
     45 H19         21.8580    39.6300    45.6720 hc         1 A87       0.034200
     46 H20         21.6890    38.8120    44.1310 hc         1 A87       0.034200
     47 H21         23.0730    41.5430    44.4940 hc         1 A87       0.034200
     48 H22         23.8890    39.9860    44.4800 hc         1 A87       0.034200
     49 H23         22.7860    39.5890    42.1470 hc         1 A87       0.036200
     50 H24         24.1880    40.6240    42.2740 hc         1 A87       0.036200
     51 H25         22.2370    41.3840    40.7780 hc         1 A87       0.036950
     52 H26         23.0370    42.5690    41.7880 hc         1 A87       0.036950
     53 H27         18.6870    43.7480    39.1280 h1         1 A87       0.031200
     54 H28         17.5570    45.0800    39.0510 h1         1 A87       0.031200
     55 H29         15.9560    43.8110    40.5300 hc         1 A87       0.045200
     56 H30         16.1780    43.2640    38.8850 hc         1 A87       0.045200
     57 H31         15.7920    41.7250    42.2360 h4         1 A87       0.215000
     58 H32         18.4810    41.8650    37.8570 ha         1 A87       0.115000
     59 H33         19.7570    39.8240    37.1590 ha         1 A87       0.126000
     60 H34         18.3800    37.7420    40.7060 ha         1 A87       0.113000
     61 H36         16.7220    39.2960    42.2840 hn         1 A87       0.348000
     62 H37         19.7120    36.8530    39.1690 ho         1 A87       0.460000
@<TRIPOS>BOND
     1     1     2 1   
     2     1    27 1   
     3     1    28 1   
     4     1    29 1   
     5     2     3 1   
     6     2    30 1   
     7     2    31 1   
     8     3     4 1   
     9     3    32 1   
    10     3    33 1   
    11     4    24 1   
    12     4    34 1   
    13     4    35 1   
    14     5     6 1   
    15     5    24 1   
    16     5    36 1   
    17     5    37 1   
    18     6     7 1   
    19     6    38 1   
    20     6    39 1   
    21     7     8 1   
    22     7    13 1   
    23     7    40 1   
    24     8     9 1   
    25     8    41 1   
    26     8    42 1   
    27     9    10 1   
    28     9    43 1   
    29     9    44 1   
    30    10    11 1   
    31    10    45 1   
    32    10    46 1   
    33    11    12 1   
    34    11    47 1   
    35    11    48 1   
    36    12    13 1   
    37    12    49 1   
    38    12    50 1   
    39    13    51 1   
    40    13    52 1   
    41    14    15 1   
    42    14    24 1   
    43    14    53 1   
    44    14    54 1   
    45    15    16 1   
    46    15    55 1   
    47    15    56 1   
    48    16    17 2   
    49    16    19 1   
    50    17    25 1   
    51    17    57 1   
    52    18    19 ar  
    53    18    23 ar  
    54    18    25 1   
    55    19    20 ar  
    56    20    21 ar  
    57    20    58 1   
    58    21    22 ar  
    59    21    59 1   
    60    22    23 ar  
    61    22    26 1   
    62    23    60 1   
    63    25    61 1   
    64    26    62 1   
@<TRIPOS>SUBSTRUCTURE
     1 A87         1 TEMP              0 ****  ****    0 ROOT
