@<TRIPOS>MOLECULE
A88
   80    84     1     0     0
SMALL
No Charge or Current Charge


@<TRIPOS>ATOM
      1 N1           0.1800     0.9200     0.9900 n3         1 A88      -0.500600
      2 N2           1.5880     0.6570     0.9200 n          1 A88      -0.298200
      3 C3           2.1630    -0.1380    -0.1170 c          1 A88       0.647000
      4 O3           3.3700    -0.0800    -0.3230 o          1 A88      -0.602000
      5 N4           1.3510    -1.0030    -0.9130 n          1 A88      -0.420800
      6 C5           0.0120    -1.5450    -0.4850 c3         1 A88       0.156700
      7 C6          -0.2560    -1.5180     1.0650 c3         1 A88       0.162300
      8 O6          -1.2230    -2.5130     1.4550 oh         1 A88      -0.642000
      9 C7          -0.6870    -0.1200     1.5680 c3         1 A88       0.126800
     10 C8          -0.3180     2.3110     1.1270 c3         1 A88       0.234100
     11 C9          -1.6920     2.5540     0.5060 ca         1 A88      -0.094300
     12 C10         -2.8470     2.5920     1.3140 ca         1 A88      -0.097000
     13 C11         -4.1080     2.8220     0.7360 ca         1 A88      -0.112000
     14 C12         -4.2220     3.0170    -0.6500 ca         1 A88      -0.103000
     15 C13         -3.0740     2.9850    -1.4600 ca         1 A88      -0.112000
     16 C14         -1.8130     2.7570    -0.8830 ca         1 A88      -0.097000
     17 C15         -1.1380    -0.9630    -1.3670 c3         1 A88      -0.049100
     18 C16         -2.5040    -1.6140    -1.1760 ca         1 A88      -0.057300
     19 C17         -3.5880    -0.8660    -0.6760 ca         1 A88      -0.103000
     20 C18         -4.8510    -1.4620    -0.5170 ca         1 A88      -0.110500
     21 C19         -5.0400    -2.8100    -0.8630 ca         1 A88      -0.115000
     22 C20         -3.9670    -3.5600    -1.3710 ca         1 A88      -0.110500
     23 C21         -2.7040    -2.9640    -1.5300 ca         1 A88      -0.103000
     24 C22          1.9350    -1.6130    -2.1400 c3         1 A88       0.153300
     25 C23          1.5890    -0.8610    -3.4240 ca         1 A88      -0.105300
     26 C24          1.6950     0.5450    -3.4850 ca         1 A88      -0.131000
     27 C25          1.3470     1.2370    -4.6670 ca         1 A88       0.042100
     28 C26          0.9010     0.5110    -5.7890 ca         1 A88       0.122100
     29 C27          0.8010    -0.8880    -5.7350 ca         1 A88      -0.125000
     30 C28          1.1420    -1.5720    -4.5560 ca         1 A88      -0.103000
     31 O29          0.5660     1.1750    -6.9330 oh         1 A88      -0.536100
     32 O30          1.4240     2.6170    -4.7690 os         1 A88      -0.371100
     33 C31          1.8470     3.4460    -3.6700 c3         1 A88       0.156900
     34 C32          2.4460     1.1530     2.0240 c3         1 A88       0.142300
     35 C33          2.5040     0.1800     3.1950 ca         1 A88      -0.127300
     36 C34          3.4010    -0.9050     3.1680 ca         1 A88      -0.085000
     37 C35          3.4390    -1.8180     4.2360 ca         1 A88      -0.128000
     38 C36          2.5790    -1.6520     5.3320 ca         1 A88       0.126100
     39 C37          1.6730    -0.5720     5.3710 ca         1 A88       0.039100
     40 C38          1.6410     0.3460     4.2970 ca         1 A88      -0.148000
     41 O39          2.6140    -2.5400     6.3670 oh         1 A88      -0.531100
     42 O40          0.8390    -0.4570     6.4710 os         1 A88      -0.367100
     43 C41         -0.1300     0.6020     6.5930 c3         1 A88       0.157900
     44 H5           0.0480    -2.6150    -0.7250 h1         1 A88       0.053700
     45 H6           0.6970    -1.7650     1.5540 h1         1 A88       0.044700
     46 HO6         -1.2070    -2.5680     2.4350 ho         1 A88       0.446000
     47 H71         -1.7340     0.0470     1.2900 h1         1 A88       0.052700
     48 H72         -0.6250    -0.0980     2.6630 h1         1 A88       0.052700
     49 H81         -0.3440     2.5910     2.1890 h1         1 A88       0.043700
     50 H82          0.3900     2.9950     0.6410 h1         1 A88       0.043700
     51 H10         -2.7670     2.4400     2.3880 ha         1 A88       0.114000
     52 H11         -4.9960     2.8470     1.3640 ha         1 A88       0.117000
     53 H12         -5.1980     3.1930    -1.0970 ha         1 A88       0.116000
     54 H13         -3.1610     3.1360    -2.5340 ha         1 A88       0.117000
     55 H14         -0.9280     2.7300    -1.5150 ha         1 A88       0.114000
     56 H151        -1.2020     0.1170    -1.2110 hc         1 A88       0.064700
     57 H152        -0.8670    -1.0780    -2.4210 hc         1 A88       0.064700
     58 H17         -3.4540     0.1790    -0.4100 ha         1 A88       0.109000
     59 H18         -5.6810    -0.8780    -0.1270 ha         1 A88       0.107000
     60 H19         -6.0180    -3.2720    -0.7400 ha         1 A88       0.108000
     61 H20         -4.1130    -4.6030    -1.6430 ha         1 A88       0.107000
     62 H21         -1.8800    -3.5510    -1.9290 ha         1 A88       0.109000
     63 H221         1.5780    -2.6480    -2.2270 h1         1 A88       0.065700
     64 H222         3.0260    -1.6820    -2.0580 h1         1 A88       0.065700
     65 H24          2.0410     1.0840    -2.6100 ha         1 A88       0.128000
     66 H27          0.4550    -1.4410    -6.6040 ha         1 A88       0.130000
     67 H28          1.0540    -2.6560    -4.5230 ha         1 A88       0.114000
     68 HO9          0.7100     2.1300    -6.7480 ho         1 A88       0.480000
     69 H311         1.8290     4.5040    -3.9620 h1         1 A88       0.041700
     70 H312         1.1820     3.3200    -2.8060 h1         1 A88       0.041700
     71 H313         2.8720     3.1970    -3.3640 h1         1 A88       0.041700
     72 H321         3.4630     1.3430     1.6580 h1         1 A88       0.067700
     73 H322         2.0630     2.1190     2.3760 h1         1 A88       0.067700
     74 H34          4.0660    -1.0430     2.3180 ha         1 A88       0.137000
     75 H35          4.1330    -2.6550     4.2120 ha         1 A88       0.135000
     76 H38          0.9500     1.1840     4.2970 ha         1 A88       0.112000
     77 HO3          1.9390    -2.2360     7.0130 ho         1 A88       0.482000
     78 H411        -0.6840     0.5030     7.5340 h1         1 A88       0.041700
     79 H412         0.3620     1.5830     6.5890 h1         1 A88       0.041700
     80 H413        -0.8520     0.5660     5.7680 h1         1 A88       0.041700
@<TRIPOS>BOND
     1     1     2 1   
     2     1     9 1   
     3     1    10 1   
     4     2     3 1   
     5     2    34 1   
     6     3     4 2   
     7     3     5 1   
     8     5     6 1   
     9     5    24 1   
    10     6     7 1   
    11     6    17 1   
    12     6    44 1   
    13     7     8 1   
    14     7     9 1   
    15     7    45 1   
    16     8    46 1   
    17     9    47 1   
    18     9    48 1   
    19    10    11 1   
    20    10    49 1   
    21    10    50 1   
    22    11    12 ar  
    23    11    16 ar  
    24    12    13 ar  
    25    12    51 1   
    26    13    14 ar  
    27    13    52 1   
    28    14    15 ar  
    29    14    53 1   
    30    15    16 ar  
    31    15    54 1   
    32    16    55 1   
    33    17    18 1   
    34    17    56 1   
    35    17    57 1   
    36    18    19 ar  
    37    18    23 ar  
    38    19    20 ar  
    39    19    58 1   
    40    20    21 ar  
    41    20    59 1   
    42    21    22 ar  
    43    21    60 1   
    44    22    23 ar  
    45    22    61 1   
    46    23    62 1   
    47    24    25 1   
    48    24    63 1   
    49    24    64 1   
    50    25    26 ar  
    51    25    30 ar  
    52    26    27 ar  
    53    26    65 1   
    54    27    28 ar  
    55    27    32 1   
    56    28    29 ar  
    57    28    31 1   
    58    29    30 ar  
    59    29    66 1   
    60    30    67 1   
    61    31    68 1   
    62    32    33 1   
    63    33    69 1   
    64    33    70 1   
    65    33    71 1   
    66    34    35 1   
    67    34    72 1   
    68    34    73 1   
    69    35    36 ar  
    70    35    40 ar  
    71    36    37 ar  
    72    36    74 1   
    73    37    38 ar  
    74    37    75 1   
    75    38    39 ar  
    76    38    41 1   
    77    39    40 ar  
    78    39    42 1   
    79    40    76 1   
    80    41    77 1   
    81    42    43 1   
    82    43    78 1   
    83    43    79 1   
    84    43    80 1   
@<TRIPOS>SUBSTRUCTURE
     1 A88         1 TEMP              0 ****  ****    0 ROOT
