@<TRIPOS>MOLECULE
A88
   80    84     1     0     0
SMALL
abcg2


@<TRIPOS>ATOM
      1 N1           0.1590     0.8960     0.7800 n3         1 A88      -0.500600
      2 N2           1.5240     0.6820     0.8280 n          1 A88      -0.298200
      3 C3           2.1030    -0.1220    -0.1240 c          1 A88       0.647000
      4 O3           3.3140    -0.0670    -0.3190 o          1 A88      -0.602000
      5 N4           1.2960    -0.9680    -0.8340 n          1 A88      -0.420800
      6 C5           0.0240    -1.5560    -0.3940 c3         1 A88       0.156700
      7 C6          -0.1850    -1.4520     1.1230 c3         1 A88       0.162300
      8 O6          -1.1330    -2.4240     1.4970 oh         1 A88      -0.642000
      9 C7          -0.6260    -0.0550     1.5330 c3         1 A88       0.126800
     10 C8          -0.2250     2.2900     0.9160 c3         1 A88       0.234100
     11 C9          -1.5740     2.5370     0.2930 ca         1 A88      -0.094300
     12 C10         -2.7080     2.7000     1.0810 ca         1 A88      -0.097000
     13 C11         -3.9550     2.8950     0.5000 ca         1 A88      -0.112000
     14 C12         -4.0790     2.9330    -0.8820 ca         1 A88      -0.103000
     15 C13         -2.9500     2.7780    -1.6790 ca         1 A88      -0.112000
     16 C14         -1.7090     2.5800    -1.0930 ca         1 A88      -0.097000
     17 C15         -1.1380    -1.0490    -1.2640 c3         1 A88      -0.049100
     18 C16         -2.4650    -1.7150    -1.0330 ca         1 A88      -0.057300
     19 C17         -3.5540    -0.9840    -0.5670 ca         1 A88      -0.103000
     20 C18         -4.7930    -1.5850    -0.3810 ca         1 A88      -0.110500
     21 C19         -4.9620    -2.9330    -0.6640 ca         1 A88      -0.115000
     22 C20         -3.8850    -3.6710    -1.1440 ca         1 A88      -0.110500
     23 C21         -2.6520    -3.0640    -1.3300 ca         1 A88      -0.103000
     24 C22          1.8380    -1.5180    -2.0670 c3         1 A88       0.153300
     25 C23          1.4810    -0.7310    -3.3060 ca         1 A88      -0.105300
     26 C24          1.6310     0.6580    -3.3360 ca         1 A88      -0.131000
     27 C25          1.3170     1.3790    -4.4750 ca         1 A88       0.042100
     28 C26          0.8500     0.7160    -5.6220 ca         1 A88       0.122100
     29 C27          0.7100    -0.6590    -5.5940 ca         1 A88      -0.125000
     30 C28          1.0210    -1.3760    -4.4420 ca         1 A88      -0.103000
     31 O29          0.5370     1.3930    -6.7470 oh         1 A88      -0.536100
     32 O30          1.4240     2.7210    -4.6020 os         1 A88      -0.371100
     33 C31          1.8630     3.4770    -3.4930 c3         1 A88       0.156900
     34 C32          2.3200     1.1340     1.9670 c3         1 A88       0.142300
     35 C33          2.3730     0.1460     3.1060 ca         1 A88      -0.127300
     36 C34          3.1920    -0.9720     3.0410 ca         1 A88      -0.085000
     37 C35          3.1970    -1.9050     4.0710 ca         1 A88      -0.128000
     38 C36          2.3860    -1.7350     5.1800 ca         1 A88       0.126100
     39 C37          1.5650    -0.5990     5.2610 ca         1 A88       0.039100
     40 C38          1.5690     0.3280     4.2320 ca         1 A88      -0.148000
     41 O39          2.4060    -2.6590     6.1620 oh         1 A88      -0.531100
     42 O40          0.8190    -0.5180     6.3850 os         1 A88      -0.367100
     43 C41         -0.0230     0.6040     6.5580 c3         1 A88       0.157900
     44 H5           0.1360    -2.6310    -0.5780 h1         1 A88       0.053700
     45 H6           0.7790    -1.6840     1.5950 h1         1 A88       0.044700
     46 HO6         -1.1170    -2.4990     2.4560 ho         1 A88       0.446000
     47 H71         -1.6740     0.0830     1.2610 h1         1 A88       0.052700
     48 H72         -0.5590     0.0760     2.6230 h1         1 A88       0.052700
     49 H81         -0.2450     2.6200     1.9660 h1         1 A88       0.043700
     50 H82          0.5310     2.8900     0.4060 h1         1 A88       0.043700
     51 H10         -2.6160     2.6720     2.1610 ha         1 A88       0.114000
     52 H11         -4.8290     3.0150     1.1280 ha         1 A88       0.117000
     53 H12         -5.0480     3.0860    -1.3370 ha         1 A88       0.116000
     54 H13         -3.0380     2.8100    -2.7570 ha         1 A88       0.117000
     55 H14         -0.8340     2.4540    -1.7200 ha         1 A88       0.114000
     56 H151        -1.2300     0.0280    -1.1410 hc         1 A88       0.064700
     57 H152        -0.8540    -1.2100    -2.3070 hc         1 A88       0.064700
     58 H17         -3.4340     0.0730    -0.3560 ha         1 A88       0.109000
     59 H18         -5.6280    -0.9980    -0.0190 ha         1 A88       0.107000
     60 H19         -5.9260    -3.4050    -0.5210 ha         1 A88       0.108000
     61 H20         -4.0110    -4.7200    -1.3790 ha         1 A88       0.107000
     62 H21         -1.8250    -3.6480    -1.7160 ha         1 A88       0.109000
     63 H221         1.4740    -2.5410    -2.1790 h1         1 A88       0.065700
     64 H222         2.9210    -1.5930    -1.9770 h1         1 A88       0.065700
     65 H24          2.0080     1.1710    -2.4620 ha         1 A88       0.128000
     66 H27          0.3440    -1.1710    -6.4750 ha         1 A88       0.130000
     67 H28          0.8910    -2.4510    -4.4380 ha         1 A88       0.114000
     68 HO9          0.6750     2.3390    -6.6160 ho         1 A88       0.480000
     69 H311         1.8690     4.5170    -3.8070 h1         1 A88       0.041700
     70 H312         1.1890     3.3730    -2.6380 h1         1 A88       0.041700
     71 H313         2.8720     3.1960    -3.1810 h1         1 A88       0.041700
     72 H321         3.3230     1.3550     1.6090 h1         1 A88       0.067700
     73 H322         1.9070     2.0820     2.3150 h1         1 A88       0.067700
     74 H34          3.8390    -1.1240     2.1870 ha         1 A88       0.137000
     75 H35          3.8400    -2.7760     4.0190 ha         1 A88       0.135000
     76 H38          0.9390     1.2080     4.2840 ha         1 A88       0.112000
     77 HO3          1.8200    -2.3930     6.8810 ho         1 A88       0.482000
     78 H411        -0.5230     0.4730     7.5140 h1         1 A88       0.041700
     79 H412         0.5460     1.5370     6.5800 h1         1 A88       0.041700
     80 H413        -0.7780     0.6690     5.7710 h1         1 A88       0.041700
@<TRIPOS>BOND
     1     1     2 1   
     2     1     9 1   
     3     1    10 1   
     4     2     3 1   
     5     2    34 1   
     6     3     4 2   
     7     3     5 1   
     8     5     6 1   
     9     5    24 1   
    10     6     7 1   
    11     6    17 1   
    12     6    44 1   
    13     7     8 1   
    14     7     9 1   
    15     7    45 1   
    16     8    46 1   
    17     9    47 1   
    18     9    48 1   
    19    10    11 1   
    20    10    49 1   
    21    10    50 1   
    22    11    12 ar  
    23    11    16 ar  
    24    12    13 ar  
    25    12    51 1   
    26    13    14 ar  
    27    13    52 1   
    28    14    15 ar  
    29    14    53 1   
    30    15    16 ar  
    31    15    54 1   
    32    16    55 1   
    33    17    18 1   
    34    17    56 1   
    35    17    57 1   
    36    18    19 ar  
    37    18    23 ar  
    38    19    20 ar  
    39    19    58 1   
    40    20    21 ar  
    41    20    59 1   
    42    21    22 ar  
    43    21    60 1   
    44    22    23 ar  
    45    22    61 1   
    46    23    62 1   
    47    24    25 1   
    48    24    63 1   
    49    24    64 1   
    50    25    26 ar  
    51    25    30 ar  
    52    26    27 ar  
    53    26    65 1   
    54    27    28 ar  
    55    27    32 1   
    56    28    29 ar  
    57    28    31 1   
    58    29    30 ar  
    59    29    66 1   
    60    30    67 1   
    61    31    68 1   
    62    32    33 1   
    63    33    69 1   
    64    33    70 1   
    65    33    71 1   
    66    34    35 1   
    67    34    72 1   
    68    34    73 1   
    69    35    36 ar  
    70    35    40 ar  
    71    36    37 ar  
    72    36    74 1   
    73    37    38 ar  
    74    37    75 1   
    75    38    39 ar  
    76    38    41 1   
    77    39    40 ar  
    78    39    42 1   
    79    40    76 1   
    80    41    77 1   
    81    42    43 1   
    82    43    78 1   
    83    43    79 1   
    84    43    80 1   
@<TRIPOS>SUBSTRUCTURE
     1 A88         1 TEMP              0 ****  ****    0 ROOT
