@<TRIPOS>MOLECULE
A89
   75    77     1     0     0
SMALL
No Charge or Current Charge


@<TRIPOS>ATOM
      1 C23         -2.1230     1.1370    -1.3570 c          1 A89       0.625700
      2 C24         -2.5240     2.1540    -0.3050 ca         1 A89      -0.112600
      3 C25         -3.3480     3.2420    -0.6750 ca         1 A89      -0.053000
      4 C26         -3.7510     4.2100     0.2670 ca         1 A89      -0.052300
      5 C27         -3.3230     4.0880     1.6050 ca         1 A89      -0.002900
      6 C28         -2.5070     3.0120     1.9880 ca         1 A89      -0.098000
      7 C29         -2.1090     2.0510     1.0450 ca         1 A89      -0.090000
      8 C30         -4.6390     5.3700    -0.1730 c3         1 A89      -0.047800
      9 O7          -2.5080     1.2210    -2.5170 o          1 A89      -0.594100
     10 Br          -3.8350     5.3700     2.9390 br         1 A89      -0.129100
     11 N1          -1.2990     0.1100    -0.9380 ns         1 A89      -0.470900
     12 C9          -0.8710    -1.0470    -1.7650 c3         1 A89       0.051700
     13 C10          0.1430    -0.6250    -2.8790 c          1 A89       0.600100
     14 O4           0.6400     0.4930    -2.9490 o          1 A89      -0.609100
     15 C8          -2.0700    -1.8950    -2.2810 c3         1 A89      -0.024100
     16 C5          -3.0940    -2.1980    -1.1890 ca         1 A89      -0.157300
     17 C6          -2.7700    -3.0760    -0.1390 ca         1 A89      -0.130500
     18 C4          -4.3650    -1.5960    -1.2120 ca         1 A89      -0.130500
     19 C7          -3.7020    -3.3440     0.8790 ca         1 A89      -0.077000
     20 C3          -5.2980    -1.8620    -0.1940 ca         1 A89      -0.077000
     21 C2          -4.9750    -2.7340     0.8670 ca         1 A89      -0.033300
     22 C1          -5.9900    -3.0200     1.9840 c3         1 A89      -0.046700
     23 F1          -5.3590    -3.2440     3.1670 f          1 A89      -0.158500
     24 F2          -6.7880    -1.9410     2.2030 f          1 A89      -0.158500
     25 P1          -7.0980    -4.5140     1.6070 p5         1 A89       1.259500
     26 O2          -8.0580    -4.7280     2.7340 o          1 A89      -0.898500
     27 O1          -7.8690    -4.2690     0.3500 o          1 A89      -0.898500
     28 O3          -6.2580    -5.7400     1.4420 o          1 A89      -0.898500
     29 N2           0.4650    -1.6110    -3.7930 ns         1 A89      -0.498900
     30 N4           5.5000    -0.9780    -1.9400 ns         1 A89      -0.499900
     31 C11          1.4030    -1.4560    -4.9300 c3         1 A89       0.035700
     32 C12          0.8410    -2.1760    -6.1950 c          1 A89       0.588100
     33 C13          2.8360    -1.9440    -4.5680 c3         1 A89      -0.083400
     34 C14          3.4800    -1.2210    -3.3610 c3         1 A89      -0.095400
     35 C15          4.9260    -1.6760    -3.0900 c3         1 A89       0.101000
     36 C16          6.7730    -1.1910    -1.4580 c          1 A89       0.611700
     37 C17          7.1940    -0.3760    -0.2520 ca         1 A89      -0.149600
     38 C18          8.4920    -0.5490     0.2830 ca         1 A89      -0.048000
     39 C19          8.9150     0.1910     1.4010 ca         1 A89      -0.127000
     40 C20          8.0470     1.1160     2.0030 ca         1 A89      -0.066000
     41 C21          6.7570     1.2990     1.4840 ca         1 A89       0.185000
     42 C22          6.3290     0.5630     0.3670 ca         1 A89      -0.053000
     43 O5          -0.1720    -2.8580    -6.1920 o          1 A89      -0.568100
     44 O6           7.5200    -2.0030    -1.9870 o          1 A89      -0.598100
     45 I            5.4160     2.7250     2.4120 i          1 A89      -0.302000
     46 N3           1.5430    -2.0240    -7.3430 nt         1 A89      -0.615000
     47 H24         -3.6800     3.3380    -1.7070 ha         1 A89       0.143000
     48 H25         -2.1820     2.9210     3.0210 ha         1 A89       0.119000
     49 H26         -1.4800     1.2320     1.3850 ha         1 A89       0.115000
     50 H27         -5.5880     5.3690     0.3760 hc         1 A89       0.049367
     51 H28         -4.1460     6.3330     0.0040 hc         1 A89       0.049367
     52 H29         -4.8800     5.3180    -1.2410 hc         1 A89       0.049367
     53 H1          -1.0230     0.1240     0.0340 hn         1 A89       0.326500
     54 H12         -0.2970    -1.7020    -1.0990 h1         1 A89       0.061700
     55 H10         -2.5490    -1.3750    -3.1200 hc         1 A89       0.050200
     56 H11         -1.6980    -2.8410    -2.6920 hc         1 A89       0.050200
     57 H8          -1.7940    -3.5540    -0.1080 ha         1 A89       0.077000
     58 H7          -4.6330    -0.9140    -2.0160 ha         1 A89       0.077000
     59 H9          -3.4320    -4.0300     1.6780 ha         1 A89       0.135500
     60 H6          -6.2750    -1.3860    -0.2340 ha         1 A89       0.135500
     61 H2          -0.0070    -2.5020    -3.6890 hn         1 A89       0.332500
     62 H5           4.9320    -0.2920    -1.4620 hn         1 A89       0.314500
     63 H13          1.4630    -0.3910    -5.1930 h1         1 A89       0.068700
     64 H14          2.8040    -3.0220    -4.3640 hc         1 A89       0.053700
     65 H15          3.4910    -1.8100    -5.4380 hc         1 A89       0.053700
     66 H16          3.4730    -0.1390    -3.5430 hc         1 A89       0.051700
     67 H17          2.8810    -1.4040    -2.4610 hc         1 A89       0.051700
     68 H18          5.5480    -1.4770    -3.9730 h1         1 A89       0.053200
     69 H19          4.9410    -2.7570    -2.8930 h1         1 A89       0.053200
     70 H20          9.1820    -1.2610    -0.1680 ha         1 A89       0.135000
     71 H21          9.9170     0.0470     1.8010 ha         1 A89       0.116000
     72 H22          8.3710     1.6900     2.8680 ha         1 A89       0.124000
     73 H23          5.3220     0.7370     0.0000 ha         1 A89       0.135000
     74 H3           2.3800    -1.4600    -7.3570 hn         1 A89       0.306000
     75 H4           1.2150    -2.4760    -8.1840 hn         1 A89       0.306000
@<TRIPOS>BOND
     1     1     2 1   
     2     1     9 2   
     3     1    11 1   
     4     2     3 ar  
     5     2     7 ar  
     6     3     4 ar  
     7     3    47 1   
     8     4     5 ar  
     9     4     8 1   
    10     5     6 ar  
    11     5    10 1   
    12     6     7 ar  
    13     6    48 1   
    14     7    49 1   
    15     8    50 1   
    16     8    51 1   
    17     8    52 1   
    18    11    12 1   
    19    11    53 1   
    20    12    13 1   
    21    12    15 1   
    22    12    54 1   
    23    13    14 2   
    24    13    29 1   
    25    15    16 1   
    26    15    55 1   
    27    15    56 1   
    28    16    17 ar  
    29    16    18 ar  
    30    17    19 ar  
    31    17    57 1   
    32    18    20 ar  
    33    18    58 1   
    34    19    21 ar  
    35    19    59 1   
    36    20    21 ar  
    37    20    60 1   
    38    21    22 1   
    39    22    23 1   
    40    22    24 1   
    41    22    25 1   
    42    25    26 1   
    43    25    27 1   
    44    25    28 1   
    45    29    31 1   
    46    29    61 1   
    47    30    35 1   
    48    30    36 1   
    49    30    62 1   
    50    31    32 1   
    51    31    33 1   
    52    31    63 1   
    53    32    43 2   
    54    32    46 1   
    55    33    34 1   
    56    33    64 1   
    57    33    65 1   
    58    34    35 1   
    59    34    66 1   
    60    34    67 1   
    61    35    68 1   
    62    35    69 1   
    63    36    37 1   
    64    36    44 2   
    65    37    38 ar  
    66    37    42 ar  
    67    38    39 ar  
    68    38    70 1   
    69    39    40 ar  
    70    39    71 1   
    71    40    41 ar  
    72    40    72 1   
    73    41    42 ar  
    74    41    45 1   
    75    42    73 1   
    76    46    74 1   
    77    46    75 1   
@<TRIPOS>SUBSTRUCTURE
     1 A89         1 TEMP              0 ****  ****    0 ROOT
