@<TRIPOS>MOLECULE
A89
   75    77     1     0     0
SMALL
abcg2


@<TRIPOS>ATOM
      1 C23         -2.7960     1.5150    -1.9090 c          1 A89       0.625700
      2 C24         -3.7720     2.5110    -1.3700 ca         1 A89      -0.112600
      3 C25         -5.0810     2.4610    -1.8360 ca         1 A89      -0.053000
      4 C26         -6.0630     3.3400    -1.3920 ca         1 A89      -0.052300
      5 C27         -5.6700     4.3060    -0.4640 ca         1 A89      -0.002900
      6 C28         -4.3660     4.3930     0.0020 ca         1 A89      -0.098000
      7 C29         -3.4170     3.4900    -0.4480 ca         1 A89      -0.090000
      8 C30         -7.4660     3.2230    -1.9050 c3         1 A89      -0.047800
      9 O7          -2.9280     1.0410    -3.0280 o          1 A89      -0.594100
     10 BR          -6.9310     5.5510     0.1910 br         1 A89      -0.129100
     11 N1          -1.8000     1.1670    -1.0790 ns         1 A89      -0.470900
     12 C9          -0.7990     0.1920    -1.4200 c3         1 A89       0.051700
     13 C10          0.0660     0.6990    -2.5820 c          1 A89       0.600100
     14 O4           0.0460     1.8600    -2.9470 o          1 A89      -0.609100
     15 C8          -1.3820    -1.2230    -1.6280 c3         1 A89      -0.024100
     16 C5          -2.2830    -1.6100    -0.4900 ca         1 A89      -0.157300
     17 C6          -1.7480    -2.0340     0.7230 ca         1 A89      -0.130500
     18 C4          -3.6670    -1.5180    -0.5980 ca         1 A89      -0.130500
     19 C7          -2.5680    -2.3500     1.7960 ca         1 A89      -0.077000
     20 C3          -4.4920    -1.8330     0.4710 ca         1 A89      -0.077000
     21 C2          -3.9510    -2.2380     1.6880 ca         1 A89      -0.033300
     22 C1          -4.8510    -2.6000     2.8250 c3         1 A89      -0.046700
     23 F1          -4.1570    -2.4430     4.0090 f          1 A89      -0.158500
     24 F2          -5.8650    -1.6590     2.8970 f          1 A89      -0.158500
     25 P1          -5.5770    -4.3380     2.7200 p5         1 A89       1.259500
     26 O2          -6.3780    -4.4820     4.0130 o          1 A89      -0.898500
     27 O1          -6.4180    -4.2710     1.4490 o          1 A89      -0.898500
     28 O3          -4.3300    -5.2110     2.6350 o          1 A89      -0.898500
     29 N2           0.9120    -0.2060    -3.1030 ns         1 A89      -0.498900
     30 N4           5.7800    -1.8530    -1.9730 ns         1 A89      -0.499900
     31 C11          1.7960     0.1150    -4.1920 c3         1 A89       0.035700
     32 C12          1.0230     0.1650    -5.5130 c          1 A89       0.588100
     33 C13          2.9150    -0.9240    -4.2760 c3         1 A89      -0.083400
     34 C14          3.8320    -0.8810    -3.0600 c3         1 A89      -0.095400
     35 C15          4.9120    -1.9470    -3.1290 c3         1 A89       0.101000
     36 C16          6.6250    -2.8310    -1.6150 c          1 A89       0.611700
     37 C17          7.4450    -2.5700    -0.3900 ca         1 A89      -0.149600
     38 C18          8.6950    -3.1730    -0.2860 ca         1 A89      -0.048000
     39 C19          9.4780    -2.9630     0.8370 ca         1 A89      -0.127000
     40 C20          9.0190    -2.1690     1.8800 ca         1 A89      -0.066000
     41 C21          7.7630    -1.5890     1.7780 ca         1 A89       0.185000
     42 C22          6.9720    -1.7790     0.6550 ca         1 A89      -0.053000
     43 O5           0.0250    -0.5080    -5.6990 o          1 A89      -0.568100
     44 O6           6.7360    -3.8800    -2.2340 o          1 A89      -0.598100
     45 I            7.0370    -0.4100     3.3610 i          1 A89      -0.302000
     46 N3           1.5640     0.9720    -6.4360 nt         1 A89      -0.615000
     47 H24         -5.3540     1.7040    -2.5610 ha         1 A89       0.143000
     48 H25         -4.0810     5.1600     0.7090 ha         1 A89       0.119000
     49 H26         -2.4020     3.5830    -0.0860 ha         1 A89       0.115000
     50 H27         -8.1710     3.0120    -1.0990 hc         1 A89       0.049367
     51 H28         -7.7960     4.1410    -2.3920 hc         1 A89       0.049367
     52 H29         -7.5400     2.4160    -2.6310 hc         1 A89       0.049367
     53 H1          -1.8090     1.5000    -0.1310 hn         1 A89       0.326500
     54 H12         -0.1300     0.1430    -0.5550 h1         1 A89       0.061700
     55 H10         -1.9160    -1.2740    -2.5760 hc         1 A89       0.050200
     56 H11         -0.5600    -1.9410    -1.6790 hc         1 A89       0.050200
     57 H8          -0.6730    -2.1250     0.8330 ha         1 A89       0.077000
     58 H7          -4.1110    -1.1990    -1.5340 ha         1 A89       0.077000
     59 H9          -2.1150    -2.6820     2.7200 ha         1 A89       0.135500
     60 H6          -5.5630    -1.7660     0.3490 ha         1 A89       0.135500
     61 H2           0.8330    -1.1750    -2.8410 hn         1 A89       0.332500
     62 H5           5.8680    -0.9490    -1.5370 hn         1 A89       0.314500
     63 H13          2.2420     1.0960    -4.0020 h1         1 A89       0.068700
     64 H14          2.4770    -1.9210    -4.3890 hc         1 A89       0.053700
     65 H15          3.5010    -0.7420    -5.1790 hc         1 A89       0.053700
     66 H16          4.2930     0.1100    -2.9990 hc         1 A89       0.051700
     67 H17          3.2530    -1.0160    -2.1430 hc         1 A89       0.051700
     68 H18          5.4910    -1.8420    -4.0530 h1         1 A89       0.053200
     69 H19          4.4560    -2.9380    -3.1510 h1         1 A89       0.053200
     70 H20          9.0610    -3.7990    -1.0890 ha         1 A89       0.135000
     71 H21         10.4550    -3.4210     0.9100 ha         1 A89       0.116000
     72 H22          9.6380    -2.0180     2.7540 ha         1 A89       0.124000
     73 H23          5.9850    -1.3370     0.6050 ha         1 A89       0.135000
     74 H3           2.3790     1.5280    -6.2440 hn         1 A89       0.306000
     75 H4           1.1820     1.0190    -7.3670 hn         1 A89       0.306000
@<TRIPOS>BOND
     1     1     2 1   
     2     1     9 2   
     3     1    11 1   
     4     2     3 ar  
     5     2     7 ar  
     6     3     4 ar  
     7     3    47 1   
     8     4     5 ar  
     9     4     8 1   
    10     5     6 ar  
    11     5    10 1   
    12     6     7 ar  
    13     6    48 1   
    14     7    49 1   
    15     8    50 1   
    16     8    51 1   
    17     8    52 1   
    18    11    12 1   
    19    11    53 1   
    20    12    13 1   
    21    12    15 1   
    22    12    54 1   
    23    13    14 2   
    24    13    29 1   
    25    15    16 1   
    26    15    55 1   
    27    15    56 1   
    28    16    17 ar  
    29    16    18 ar  
    30    17    19 ar  
    31    17    57 1   
    32    18    20 ar  
    33    18    58 1   
    34    19    21 ar  
    35    19    59 1   
    36    20    21 ar  
    37    20    60 1   
    38    21    22 1   
    39    22    23 1   
    40    22    24 1   
    41    22    25 1   
    42    25    26 1   
    43    25    27 1   
    44    25    28 1   
    45    29    31 1   
    46    29    61 1   
    47    30    35 1   
    48    30    36 1   
    49    30    62 1   
    50    31    32 1   
    51    31    33 1   
    52    31    63 1   
    53    32    43 2   
    54    32    46 1   
    55    33    34 1   
    56    33    64 1   
    57    33    65 1   
    58    34    35 1   
    59    34    66 1   
    60    34    67 1   
    61    35    68 1   
    62    35    69 1   
    63    36    37 1   
    64    36    44 2   
    65    37    38 ar  
    66    37    42 ar  
    67    38    39 ar  
    68    38    70 1   
    69    39    40 ar  
    70    39    71 1   
    71    40    41 ar  
    72    40    72 1   
    73    41    42 ar  
    74    41    45 1   
    75    42    73 1   
    76    46    74 1   
    77    46    75 1   
@<TRIPOS>SUBSTRUCTURE
     1 A89         1 TEMP              0 ****  ****    0 ROOT
