@<TRIPOS>MOLECULE
A8A
   67    70     1     0     0
SMALL
No Charge or Current Charge


@<TRIPOS>ATOM
      1 C10         -1.3180    -6.6570    -1.2010 ca         1 A8A       0.077600
      2 C13          0.1550    -3.6290    -2.9790 cc         1 A8A      -0.148200
      3 C15          0.3800    -1.1000    -3.4300 c          1 A8A       0.622300
      4 C17          2.5460    -0.8590    -4.8300 c3         1 A8A      -0.206900
      5 C24         -1.9050    -4.5470    -0.0770 ca         1 A8A      -0.140000
      6 C28          0.6310    -5.2760     2.0120 ca         1 A8A      -0.100500
      7 C01          3.5110    -5.0490    -1.9790 c3         1 A8A       0.147900
      8 C03          2.1150    -5.1230     0.0600 ca         1 A8A       0.089600
      9 C04          1.2860    -5.8960     0.9190 ca         1 A8A       0.077600
     10 C06          0.2240    -8.1000     1.3580 c3         1 A8A       0.172600
     11 C07         -0.1900    -9.2620     0.4320 c3         1 A8A      -0.110400
     12 C08         -1.5020    -9.0450    -0.3700 c3         1 A8A       0.172600
     13 C11         -0.5880    -5.9170    -2.1580 ca         1 A8A      -0.100500
     14 C12         -0.5170    -4.5200    -2.0590 ca         1 A8A      -0.085800
     15 C14         -0.0270    -2.2930    -2.6240 cd         1 A8A      -0.039600
     16 C16          1.0440    -1.2660    -4.8200 c3         1 A8A      -0.124900
     17 C18          3.3900    -1.8490    -4.0130 c          1 A8A       0.721000
     18 C23         -1.1530    -3.8580    -1.0350 ca         1 A8A      -0.069000
     19 C25         -2.0130    -5.9590    -0.1560 ca         1 A8A       0.089600
     20 C27         -3.4610    -6.0060     1.8580 c3         1 A8A       0.147900
     21 C29          0.7880    -3.8970     2.1930 ca         1 A8A      -0.085800
     22 C30          1.5730    -3.1410     1.3520 ca         1 A8A      -0.069000
     23 C32          0.4720    -1.7270     3.1170 cc         1 A8A      -0.039600
     24 C33         -0.0430    -0.6340     3.9890 c          1 A8A       0.622300
     25 C34         -0.9790    -0.9770     5.1750 c3         1 A8A      -0.124900
     26 C35         -2.4830    -0.7470     4.8430 c3         1 A8A      -0.206900
     27 C36         -2.9730    -1.7250     3.7610 c          1 A8A       0.721000
     28 C40          0.1640    -3.0770     3.2000 cd         1 A8A      -0.148200
     29 C41          2.2570    -3.7300     0.2810 ca         1 A8A      -0.140000
     30 O05          1.0980    -7.2340     0.6140 os         1 A8A      -0.349600
     31 O09         -1.3370    -8.0360    -1.3980 os         1 A8A      -0.349600
     32 O19          3.5240    -1.6330    -2.8200 o          1 A8A      -0.738750
     33 O20          3.8350    -2.8310    -4.5850 o          1 A8A      -0.738750
     34 O21          0.1480     0.0340    -3.0190 o          1 A8A      -0.521100
     35 O26         -2.8100    -6.6460     0.7450 os         1 A8A      -0.351100
     36 O37         -3.3730    -2.8220     4.1160 o          1 A8A      -0.738750
     37 O38         -2.8800    -1.3770     2.5960 o          1 A8A      -0.738750
     38 O39          0.2740     0.5360     3.7970 o          1 A8A      -0.521100
     39 SE22        -0.9210    -2.1020    -1.0830 ss         1 A8A       0.046900
     40 SE31         1.5940    -1.4030     1.7630 ss         1 A8A       0.046900
     41 H1           0.6770    -3.9680    -3.8680 ha         1 A8A       0.190500
     42 H2           2.8490    -0.8880    -5.8840 hc         1 A8A       0.024450
     43 H3           2.5940     0.1450    -4.3910 hc         1 A8A       0.024450
     44 H4          -2.3980    -3.9730     0.7020 ha         1 A8A       0.153500
     45 H5          -0.0060    -5.8280     2.6940 ha         1 A8A       0.116500
     46 H6           3.9150    -5.7450    -2.7250 h1         1 A8A       0.036700
     47 H7           2.8710    -4.3270    -2.4990 h1         1 A8A       0.036700
     48 H8           4.3520    -4.5140    -1.5210 h1         1 A8A       0.036700
     49 H9          -0.6800    -7.5880     1.7020 h1         1 A8A       0.035700
     50 H10          0.7510    -8.4910     2.2380 h1         1 A8A       0.035700
     51 H11         -0.3390   -10.1480     1.0600 hc         1 A8A       0.048700
     52 H12          0.6280    -9.5100    -0.2540 hc         1 A8A       0.048700
     53 H13         -2.3440    -8.8490     0.2980 h1         1 A8A       0.035700
     54 H14         -1.7320    -9.9990    -0.8620 h1         1 A8A       0.035700
     55 H15         -0.0810    -6.4320    -2.9690 ha         1 A8A       0.116500
     56 H16          0.5240    -0.6010    -5.5210 hc         1 A8A       0.026200
     57 H17          0.9590    -2.2910    -5.1900 hc         1 A8A       0.026200
     58 H18         -4.0120    -6.7450     2.4510 h1         1 A8A       0.036700
     59 H19         -2.7240    -5.5230     2.5140 h1         1 A8A       0.036700
     60 H20         -4.1760    -5.2490     1.5110 h1         1 A8A       0.036700
     61 H21         -0.8580    -2.0190     5.4850 hc         1 A8A       0.026200
     62 H22         -0.7240    -0.3220     6.0170 hc         1 A8A       0.026200
     63 H23         -2.5650     0.2890     4.4940 hc         1 A8A       0.024450
     64 H24         -3.0160    -0.9340     5.7840 hc         1 A8A       0.024450
     65 H25         -0.5170    -3.4970     3.9330 ha         1 A8A       0.190500
     66 H26          2.8680    -3.1060    -0.3650 ha         1 A8A       0.153500
     67 O02          2.7550    -5.7640    -0.9880 os         1 A8A      -0.351100
@<TRIPOS>BOND
     1     1    13 ar  
     2     1    19 ar  
     3     1    31 1   
     4     2    14 1   
     5     2    15 2   
     6     2    41 1   
     7     3    15 1   
     8     3    16 1   
     9     3    34 2   
    10     4    16 1   
    11     4    17 1   
    12     4    42 1   
    13     4    43 1   
    14     5    18 ar  
    15     5    19 ar  
    16     5    44 1   
    17     6     9 ar  
    18     6    21 ar  
    19     6    45 1   
    20     7    46 1   
    21     7    47 1   
    22     7    48 1   
    23     7    67 1   
    24     8     9 ar  
    25     8    29 ar  
    26     8    67 1   
    27     9    30 1   
    28    10    11 1   
    29    10    30 1   
    30    10    49 1   
    31    10    50 1   
    32    11    12 1   
    33    11    51 1   
    34    11    52 1   
    35    12    31 1   
    36    12    53 1   
    37    12    54 1   
    38    13    14 ar  
    39    13    55 1   
    40    14    18 ar  
    41    15    39 1   
    42    16    56 1   
    43    16    57 1   
    44    17    32 1   
    45    17    33 1   
    46    18    39 1   
    47    19    35 1   
    48    20    35 1   
    49    20    58 1   
    50    20    59 1   
    51    20    60 1   
    52    21    22 ar  
    53    21    28 1   
    54    22    29 ar  
    55    22    40 1   
    56    23    24 1   
    57    23    28 2   
    58    23    40 1   
    59    24    25 1   
    60    24    38 2   
    61    25    26 1   
    62    25    61 1   
    63    25    62 1   
    64    26    27 1   
    65    26    63 1   
    66    26    64 1   
    67    27    36 1   
    68    27    37 1   
    69    28    65 1   
    70    29    66 1   
@<TRIPOS>SUBSTRUCTURE
     1 A8A         1 TEMP              0 ****  ****    0 ROOT
