@<TRIPOS>MOLECULE
A8A
   67    70     1     0     0
SMALL
abcg2


@<TRIPOS>ATOM
      1 C10         -1.6140    -7.1760    -1.1560 ca         1 A8A       0.077600
      2 C13         -0.0810    -4.0630    -2.6160 cc         1 A8A      -0.148200
      3 C15          0.2340    -1.5500    -2.9530 c          1 A8A       0.622300
      4 C17          2.2690    -0.5140    -4.0500 c3         1 A8A      -0.206900
      5 C24         -2.7380    -5.1790    -0.3300 ca         1 A8A      -0.140000
      6 C28          0.8300    -5.2360     1.6390 ca         1 A8A      -0.100500
      7 C01          3.5710    -5.2800    -2.2770 c3         1 A8A       0.147900
      8 C03          2.1390    -5.1590    -0.3980 ca         1 A8A       0.089600
      9 C04          1.3760    -5.8880     0.5580 ca         1 A8A       0.077600
     10 C06          0.4890    -8.0090     1.1720 c3         1 A8A       0.172600
     11 C07          0.1160    -9.3000     0.4560 c3         1 A8A      -0.110400
     12 C08         -1.2860    -9.3490    -0.1290 c3         1 A8A       0.172600
     13 C11         -0.7660    -6.3950    -1.9030 ca         1 A8A      -0.100500
     14 C12         -0.8830    -4.9990    -1.8940 ca         1 A8A      -0.085800
     15 C14         -0.3790    -2.7590    -2.3980 cd         1 A8A      -0.039600
     16 C16          1.3420    -1.7100    -3.9610 c3         1 A8A      -0.124900
     17 C18          3.0900    -0.2450    -2.7750 c          1 A8A       0.721000
     18 C23         -1.8610    -4.4050    -1.0840 ca         1 A8A      -0.069000
     19 C25         -2.6380    -6.5610    -0.3840 ca         1 A8A       0.089600
     20 C27         -4.5240    -6.8540     1.0290 c3         1 A8A       0.147900
     21 C29          0.9760    -3.8420     1.7640 ca         1 A8A      -0.085800
     22 C30          1.6860    -3.1350     0.7870 ca         1 A8A      -0.069000
     23 C32          0.6940    -1.6950     2.6710 cc         1 A8A      -0.039600
     24 C33          0.3050    -0.5740     3.5280 c          1 A8A       0.622300
     25 C34         -0.3690    -0.8510     4.8470 c3         1 A8A      -0.124900
     26 C35         -1.4690     0.1490     5.1570 c3         1 A8A      -0.206900
     27 C36         -2.6070     0.1280     4.1170 c          1 A8A       0.721000
     28 C40          0.4380    -3.0220     2.8010 cd         1 A8A      -0.148200
     29 C41          2.2840    -3.7930    -0.2880 ca         1 A8A      -0.140000
     30 O05          1.2490    -7.1990     0.2950 os         1 A8A      -0.349600
     31 O09         -1.5160    -8.5260    -1.2720 os         1 A8A      -0.349600
     32 O19          2.8560    -0.9660    -1.7790 o          1 A8A      -0.738750
     33 O20          3.9240     0.6750    -2.8440 o          1 A8A      -0.738750
     34 O21         -0.2130    -0.4610    -2.6410 o          1 A8A      -0.521100
     35 O26         -3.4790    -7.3950     0.2450 os         1 A8A      -0.351100
     36 O37         -3.6240     0.7930     4.3930 o          1 A8A      -0.738750
     37 O38         -2.4060    -0.5430     3.0840 o          1 A8A      -0.738750
     38 O39          0.6170     0.5580     3.1990 o          1 A8A      -0.521100
     39 SE22        -1.8010    -2.5400    -1.1900 ss         1 A8A       0.046900
     40 SE31         1.6880    -1.2980     1.1270 ss         1 A8A       0.046900
     41 H1           0.7040    -4.3860    -3.2880 ha         1 A8A       0.190500
     42 H2           2.9580    -0.6640    -4.8860 hc         1 A8A       0.024450
     43 H3           1.7050     0.3890    -4.3010 hc         1 A8A       0.024450
     44 H4          -3.5020    -4.7020     0.2710 ha         1 A8A       0.153500
     45 H5           0.2760    -5.7690     2.3990 ha         1 A8A       0.116500
     46 H6           3.9270    -6.0590    -2.9470 h1         1 A8A       0.036700
     47 H7           3.1030    -4.4930    -2.8740 h1         1 A8A       0.036700
     48 H8           4.4250    -4.8500    -1.7460 h1         1 A8A       0.036700
     49 H9          -0.4180    -7.4920     1.5040 h1         1 A8A       0.035700
     50 H10          1.0820    -8.2200     2.0690 h1         1 A8A       0.035700
     51 H11          0.1480   -10.1130     1.1860 hc         1 A8A       0.048700
     52 H12          0.8700    -9.5440    -0.2960 hc         1 A8A       0.048700
     53 H13         -2.0120    -9.1430     0.6590 h1         1 A8A       0.035700
     54 H14         -1.4770   -10.3610    -0.4860 h1         1 A8A       0.035700
     55 H15         -0.0040    -6.8710    -2.5080 ha         1 A8A       0.116500
     56 H16          0.8510    -1.8810    -4.9270 hc         1 A8A       0.026200
     57 H17          1.9120    -2.6170    -3.7570 hc         1 A8A       0.026200
     58 H18         -5.0740    -7.7000     1.4320 h1         1 A8A       0.036700
     59 H19         -4.1400    -6.2540     1.8590 h1         1 A8A       0.036700
     60 H20         -5.2030    -6.2400     0.4330 h1         1 A8A       0.036700
     61 H21         -0.7600    -1.8670     4.8860 hc         1 A8A       0.026200
     62 H22          0.4160    -0.8000     5.6110 hc         1 A8A       0.026200
     63 H23         -1.0580     1.1610     5.2100 hc         1 A8A       0.024450
     64 H24         -1.8770    -0.0530     6.1510 hc         1 A8A       0.024450
     65 H25         -0.1360    -3.4400     3.6190 ha         1 A8A       0.190500
     66 H26          2.8130    -3.2210    -1.0380 ha         1 A8A       0.153500
     67 O02          2.6610    -5.8980    -1.3910 os         1 A8A      -0.351100
@<TRIPOS>BOND
     1     1    13 ar  
     2     1    19 ar  
     3     1    31 1   
     4     2    14 1   
     5     2    15 2   
     6     2    41 1   
     7     3    15 1   
     8     3    16 1   
     9     3    34 2   
    10     4    16 1   
    11     4    17 1   
    12     4    42 1   
    13     4    43 1   
    14     5    18 ar  
    15     5    19 ar  
    16     5    44 1   
    17     6     9 ar  
    18     6    21 ar  
    19     6    45 1   
    20     7    46 1   
    21     7    47 1   
    22     7    48 1   
    23     7    67 1   
    24     8     9 ar  
    25     8    29 ar  
    26     8    67 1   
    27     9    30 1   
    28    10    11 1   
    29    10    30 1   
    30    10    49 1   
    31    10    50 1   
    32    11    12 1   
    33    11    51 1   
    34    11    52 1   
    35    12    31 1   
    36    12    53 1   
    37    12    54 1   
    38    13    14 ar  
    39    13    55 1   
    40    14    18 ar  
    41    15    39 1   
    42    16    56 1   
    43    16    57 1   
    44    17    32 1   
    45    17    33 1   
    46    18    39 1   
    47    19    35 1   
    48    20    35 1   
    49    20    58 1   
    50    20    59 1   
    51    20    60 1   
    52    21    22 ar  
    53    21    28 1   
    54    22    29 ar  
    55    22    40 1   
    56    23    24 1   
    57    23    28 2   
    58    23    40 1   
    59    24    25 1   
    60    24    38 2   
    61    25    26 1   
    62    25    61 1   
    63    25    62 1   
    64    26    27 1   
    65    26    63 1   
    66    26    64 1   
    67    27    36 1   
    68    27    37 1   
    69    28    65 1   
    70    29    66 1   
@<TRIPOS>SUBSTRUCTURE
     1 A8A         1 TEMP              0 ****  ****    0 ROOT
