@<TRIPOS>MOLECULE
A8B
   70    74     1     0     0
SMALL
No Charge or Current Charge


@<TRIPOS>ATOM
      1 C1           8.2250     1.2430     0.0680 ca         1 A8B       0.291000
      2 C2           6.9010     1.2610    -0.4350 ca         1 A8B      -0.118000
      3 C3           6.3820     2.4590    -0.9920 ca         1 A8B      -0.097000
      4 C4           7.1720     3.6170    -1.0520 ca         1 A8B      -0.112000
      5 C5           8.4830     3.5970    -0.5590 ca         1 A8B      -0.102000
      6 C6           9.0000     2.4160    -0.0030 ca         1 A8B      -0.085000
      7 N7           8.7670     0.1370     0.6150 nb         1 A8B      -0.692000
      8 C8           8.0300    -0.9890     0.6850 ca         1 A8B       0.394300
      9 C9           6.7060    -1.0810     0.2070 ca         1 A8B      -0.145300
     10 C10          6.1280     0.0770    -0.3560 ca         1 A8B       0.305000
     11 N11          4.8170     0.0560    -0.8570 nu         1 A8B      -0.930200
     12 C14          5.9360    -2.4150     0.3010 c6         1 A8B      -0.019100
     13 C15          6.8460    -3.6410     0.5320 c6         1 A8B      -0.076400
     14 C16          7.8450    -3.3630     1.6700 c6         1 A8B      -0.074400
     15 C17          8.7710    -2.1850     1.2930 c6         1 A8B      -0.132700
     16 C19         -1.5300     0.0050    -0.0790 c3         1 A8B      -0.075400
     17 C20         -0.2320     0.0540    -0.9140 c3         1 A8B      -0.073400
     18 C21          1.0460     0.0080    -0.0470 c3         1 A8B      -0.075400
     19 C22         -2.8080     0.0510    -0.9450 c3         1 A8B      -0.071400
     20 C24          2.3450     0.0570    -0.8810 c3         1 A8B      -0.081400
     21 N24         -6.5790    -0.0020    -0.1310 nu         1 A8B      -0.971200
     22 C25          3.6160     0.0090    -0.0120 c3         1 A8B       0.188800
     23 C26         -9.5640     0.1170    -2.2890 ca         1 A8B       0.398900
     24 C27         -8.2280     0.1010    -1.8950 ca         1 A8B      -0.295000
     25 C29         -4.1070     0.0020    -0.1100 c3         1 A8B      -0.095400
     26 C30         -5.3790     0.0480    -0.9790 c3         1 A8B       0.228800
     27 N32        -10.5850     0.0550    -1.4120 nb         1 A8B      -0.707000
     28 C33        -10.3070    -0.0280    -0.0920 ca         1 A8B       0.304000
     29 C34         -8.9760    -0.0510     0.3980 ca         1 A8B      -0.135000
     30 C35         -7.9180     0.0150    -0.5360 ca         1 A8B       0.393000
     31 C39         -8.7460    -0.1390     1.7940 ca         1 A8B      -0.088000
     32 C40         -9.8250    -0.2040     2.6900 ca         1 A8B      -0.125000
     33 C41        -11.1400    -0.1810     2.2060 ca         1 A8B      -0.095000
     34 C42        -11.3730    -0.0940     0.8240 ca         1 A8B      -0.094000
     35 H3           5.3660     2.5100    -1.3750 ha         1 A8B       0.104000
     36 H4           6.7660     4.5310    -1.4810 ha         1 A8B       0.113000
     37 H5           9.0980     4.4930    -0.6050 ha         1 A8B       0.116000
     38 H6          10.0170     2.4070     0.3810 ha         1 A8B       0.130000
     39 HN11         4.7080     0.6490    -1.6780 hn         1 A8B       0.442000
     40 H14          5.2210    -2.3520     1.1330 hc         1 A8B       0.051200
     41 H14A         5.3410    -2.5810    -0.6070 hc         1 A8B       0.051200
     42 H15          6.2330    -4.5210     0.7720 hc         1 A8B       0.044200
     43 H15A         7.3910    -3.8810    -0.3920 hc         1 A8B       0.044200
     44 H16          7.2980    -3.1280     2.5940 hc         1 A8B       0.043200
     45 H16A         8.4440    -4.2600     1.8790 hc         1 A8B       0.043200
     46 H17          9.5170    -2.5340     0.5670 hc         1 A8B       0.062700
     47 H17A         9.3330    -1.8680     2.1810 hc         1 A8B       0.062700
     48 H19         -1.5360    -0.9120     0.5230 hc         1 A8B       0.039200
     49 H19A        -1.5400     0.8490     0.6220 hc         1 A8B       0.039200
     50 H20         -0.2220    -0.7900    -1.6150 hc         1 A8B       0.040200
     51 H20A        -0.2250     0.9710    -1.5160 hc         1 A8B       0.040200
     52 H21          1.0370     0.8520     0.6540 hc         1 A8B       0.038700
     53 H21A         1.0400    -0.9090     0.5550 hc         1 A8B       0.038700
     54 H22         -2.8020     0.9680    -1.5480 hc         1 A8B       0.042700
     55 H22A        -2.7980    -0.7930    -1.6470 hc         1 A8B       0.042700
     56 H24          2.3560    -0.7890    -1.5800 hc         1 A8B       0.047700
     57 H24A         2.3520     0.9740    -1.4830 hc         1 A8B       0.047700
     58 HN24        -6.4270    -0.0640     0.8750 hn         1 A8B       0.492000
     59 H25          3.6020    -0.9070     0.5910 h1         1 A8B       0.038200
     60 H25A         3.6140     0.8650     0.6780 h1         1 A8B       0.038200
     61 H27         -7.4550     0.1540    -2.6530 ha         1 A8B       0.120000
     62 H29         -4.1130    -0.9170     0.4900 hc         1 A8B       0.046700
     63 H29A        -4.1160     0.8470     0.5890 hc         1 A8B       0.046700
     64 H30         -5.3740    -0.8040    -1.6740 h1         1 A8B       0.044700
     65 H30A        -5.3770     0.9730    -1.5740 h1         1 A8B       0.044700
     66 H39         -7.7390    -0.1590     2.2020 ha         1 A8B       0.098000
     67 H40         -9.6410    -0.2710     3.7600 ha         1 A8B       0.112000
     68 H41        -11.9780    -0.2310     2.8990 ha         1 A8B       0.114000
     69 H42        -12.3950    -0.0770     0.4550 ha         1 A8B       0.130000
     70 H26         -9.8320     0.1830    -3.3420 h4         1 A8B       0.010100
@<TRIPOS>BOND
     1     1     2 ar  
     2     1     6 ar  
     3     1     7 ar  
     4     2     3 ar  
     5     2    10 ar  
     6     3     4 ar  
     7     3    35 1   
     8     4     5 ar  
     9     4    36 1   
    10     5     6 ar  
    11     5    37 1   
    12     6    38 1   
    13     7     8 ar  
    14     8     9 ar  
    15     8    15 1   
    16     9    10 ar  
    17     9    12 1   
    18    10    11 1   
    19    11    22 1   
    20    11    39 1   
    21    12    13 1   
    22    12    40 1   
    23    12    41 1   
    24    13    14 1   
    25    13    42 1   
    26    13    43 1   
    27    14    15 1   
    28    14    44 1   
    29    14    45 1   
    30    15    46 1   
    31    15    47 1   
    32    16    17 1   
    33    16    19 1   
    34    16    48 1   
    35    16    49 1   
    36    17    18 1   
    37    17    50 1   
    38    17    51 1   
    39    18    20 1   
    40    18    52 1   
    41    18    53 1   
    42    19    25 1   
    43    19    54 1   
    44    19    55 1   
    45    20    22 1   
    46    20    56 1   
    47    20    57 1   
    48    21    26 1   
    49    21    30 1   
    50    21    58 1   
    51    22    59 1   
    52    22    60 1   
    53    23    24 ar  
    54    23    27 ar  
    55    23    70 1   
    56    24    30 ar  
    57    24    61 1   
    58    25    26 1   
    59    25    62 1   
    60    25    63 1   
    61    26    64 1   
    62    26    65 1   
    63    27    28 ar  
    64    28    29 ar  
    65    28    34 ar  
    66    29    30 ar  
    67    29    31 ar  
    68    31    32 ar  
    69    31    66 1   
    70    32    33 ar  
    71    32    67 1   
    72    33    34 ar  
    73    33    68 1   
    74    34    69 1   
@<TRIPOS>SUBSTRUCTURE
     1 A8B         1 TEMP              0 ****  ****    0 ROOT
