@<TRIPOS>MOLECULE
A8B
   70    74     1     0     0
SMALL
abcg2


@<TRIPOS>ATOM
      1 C1           8.2350     1.1090     0.3070 ca         1 A8B       0.291000
      2 C2           6.9840     1.3880    -0.2960 ca         1 A8B      -0.118000
      3 C3           6.7250     2.7060    -0.7430 ca         1 A8B      -0.097000
      4 C4           7.6710     3.6880    -0.6220 ca         1 A8B      -0.112000
      5 C5           8.9220     3.4030    -0.0410 ca         1 A8B      -0.102000
      6 C6           9.1950     2.1430     0.4170 ca         1 A8B      -0.085000
      7 N7           8.5490    -0.1060     0.7980 nb         1 A8B      -0.692000
      8 C8           7.6740    -1.0790     0.6970 ca         1 A8B       0.394300
      9 C9           6.4000    -0.9310     0.0930 ca         1 A8B      -0.145300
     10 C10          6.0460     0.3180    -0.3970 ca         1 A8B       0.305000
     11 N11          4.8120     0.5050    -1.0060 nu         1 A8B      -0.930200
     12 C14          5.4890    -2.1190    -0.0790 c6         1 A8B      -0.019100
     13 C15          6.2190    -3.4500     0.0280 c6         1 A8B      -0.076400
     14 C16          7.0510    -3.4740     1.3000 c6         1 A8B      -0.074400
     15 C17          8.1380    -2.4140     1.2230 c6         1 A8B      -0.132700
     16 C19         -1.4330     0.1070    -0.1210 c3         1 A8B      -0.075400
     17 C20         -0.1760     0.0590    -0.9790 c3         1 A8B      -0.073400
     18 C21          1.0980     0.2650    -0.1690 c3         1 A8B      -0.075400
     19 C22         -2.7150    -0.1020    -0.9170 c3         1 A8B      -0.071400
     20 C24          2.3630     0.2450    -1.0170 c3         1 A8B      -0.081400
     21 N24         -6.3960    -0.1170     0.0050 nu         1 A8B      -0.971200
     22 C25          3.6090     0.4660    -0.1780 c3         1 A8B       0.188800
     23 C26         -9.2890    -0.8910    -2.0850 ca         1 A8B       0.398900
     24 C27         -7.9570    -0.6890    -1.7140 ca         1 A8B      -0.295000
     25 C29         -3.9630    -0.0140    -0.0500 c3         1 A8B      -0.095400
     26 C30         -5.2350    -0.2620    -0.8430 c3         1 A8B       0.228800
     27 N32        -10.3270    -0.7600    -1.2960 nb         1 A8B      -0.707000
     28 C33        -10.0750    -0.3880    -0.0160 ca         1 A8B       0.304000
     29 C34         -8.7710    -0.1500     0.4890 ca         1 A8B      -0.135000
     30 C35         -7.6580    -0.3170    -0.4080 ca         1 A8B       0.393000
     31 C39         -8.6250     0.2440     1.8370 ca         1 A8B      -0.088000
     32 C40         -9.7150     0.3930     2.6540 ca         1 A8B      -0.125000
     33 C41        -11.0070     0.1530     2.1550 ca         1 A8B      -0.095000
     34 C42        -11.1790    -0.2290     0.8520 ca         1 A8B      -0.094000
     35 H3           5.7680     2.9650    -1.1780 ha         1 A8B       0.104000
     36 H4           7.4520     4.6910    -0.9650 ha         1 A8B       0.113000
     37 H5           9.6630     4.1870     0.0490 ha         1 A8B       0.116000
     38 H6          10.1470     1.9080     0.8750 ha         1 A8B       0.130000
     39 HN11         4.7940     1.3180    -1.6050 hn         1 A8B       0.442000
     40 H14          4.7010    -2.1040     0.6820 hc         1 A8B       0.051200
     41 H14A         4.9720    -2.0330    -1.0390 hc         1 A8B       0.051200
     42 H15          5.4920    -4.2630     0.0180 hc         1 A8B       0.044200
     43 H15A         6.8700    -3.5940    -0.8410 hc         1 A8B       0.044200
     44 H16          6.3990    -3.2880     2.1600 hc         1 A8B       0.043200
     45 H16A         7.5040    -4.4540     1.4570 hc         1 A8B       0.043200
     46 H17          8.9370    -2.7670     0.5610 hc         1 A8B       0.062700
     47 H17A         8.6080    -2.2600     2.1960 hc         1 A8B       0.062700
     48 H19         -1.3670    -0.6530     0.6650 hc         1 A8B       0.039200
     49 H19A        -1.4800     1.0730     0.3950 hc         1 A8B       0.039200
     50 H20         -0.1260    -0.9030    -1.5000 hc         1 A8B       0.040200
     51 H20A        -0.2390     0.8250    -1.7590 hc         1 A8B       0.040200
     52 H21          1.0360     1.2200     0.3650 hc         1 A8B       0.038700
     53 H21A         1.1650    -0.5090     0.6030 hc         1 A8B       0.038700
     54 H22         -2.7730     0.6440    -1.7160 hc         1 A8B       0.042700
     55 H22A        -2.6810    -1.0790    -1.4120 hc         1 A8B       0.042700
     56 H24          2.4490    -0.7120    -1.5420 hc         1 A8B       0.047700
     57 H24A         2.2980     1.0200    -1.7880 hc         1 A8B       0.047700
     58 HN24        -6.2260     0.1070     0.9700 hn         1 A8B       0.492000
     59 H25          3.7030    -0.3380     0.5520 h1         1 A8B       0.038200
     60 H25A         3.5090     1.3930     0.4020 h1         1 A8B       0.038200
     61 H27         -7.1820    -0.8260    -2.4550 ha         1 A8B       0.120000
     62 H29         -3.8980    -0.7430     0.7640 hc         1 A8B       0.046700
     63 H29A        -4.0140     0.9760     0.4170 hc         1 A8B       0.046700
     64 H30         -5.2080    -1.2670    -1.2770 h1         1 A8B       0.044700
     65 H30A        -5.2940     0.4420    -1.6810 h1         1 A8B       0.044700
     66 H39         -7.6460     0.4460     2.2540 ha         1 A8B       0.098000
     67 H40         -9.5790     0.6980     3.6840 ha         1 A8B       0.112000
     68 H41        -11.8650     0.2720     2.8040 ha         1 A8B       0.114000
     69 H42        -12.1680    -0.4150     0.4520 ha         1 A8B       0.130000
     70 H26         -9.4960    -1.1850    -3.1090 h4         1 A8B       0.010100
@<TRIPOS>BOND
     1     1     2 ar  
     2     1     6 ar  
     3     1     7 ar  
     4     2     3 ar  
     5     2    10 ar  
     6     3     4 ar  
     7     3    35 1   
     8     4     5 ar  
     9     4    36 1   
    10     5     6 ar  
    11     5    37 1   
    12     6    38 1   
    13     7     8 ar  
    14     8     9 ar  
    15     8    15 1   
    16     9    10 ar  
    17     9    12 1   
    18    10    11 1   
    19    11    22 1   
    20    11    39 1   
    21    12    13 1   
    22    12    40 1   
    23    12    41 1   
    24    13    14 1   
    25    13    42 1   
    26    13    43 1   
    27    14    15 1   
    28    14    44 1   
    29    14    45 1   
    30    15    46 1   
    31    15    47 1   
    32    16    17 1   
    33    16    19 1   
    34    16    48 1   
    35    16    49 1   
    36    17    18 1   
    37    17    50 1   
    38    17    51 1   
    39    18    20 1   
    40    18    52 1   
    41    18    53 1   
    42    19    25 1   
    43    19    54 1   
    44    19    55 1   
    45    20    22 1   
    46    20    56 1   
    47    20    57 1   
    48    21    26 1   
    49    21    30 1   
    50    21    58 1   
    51    22    59 1   
    52    22    60 1   
    53    23    24 ar  
    54    23    27 ar  
    55    23    70 1   
    56    24    30 ar  
    57    24    61 1   
    58    25    26 1   
    59    25    62 1   
    60    25    63 1   
    61    26    64 1   
    62    26    65 1   
    63    27    28 ar  
    64    28    29 ar  
    65    28    34 ar  
    66    29    30 ar  
    67    29    31 ar  
    68    31    32 ar  
    69    31    66 1   
    70    32    33 ar  
    71    32    67 1   
    72    33    34 ar  
    73    33    68 1   
    74    34    69 1   
@<TRIPOS>SUBSTRUCTURE
     1 A8B         1 TEMP              0 ****  ****    0 ROOT
