@<TRIPOS>MOLECULE
A8C
   14    13     1     0     0
SMALL
No Charge or Current Charge


@<TRIPOS>ATOM
      1 C1           3.2180     0.7700    -0.1370 c3         1 A8C       0.050900
      2 S            2.0480    -0.6000     0.2830 ss         1 A8C      -0.531000
      3 C2           0.4350     0.2590    -0.0240 c3         1 A8C       0.130600
      4 C3          -0.7370    -0.6940     0.2620 c3         1 A8C      -0.210400
      5 C           -2.0480     0.0500    -0.0030 c          1 A8C       0.723000
      6 O1          -2.5450     0.6840     0.9140 o          1 A8C      -0.735500
      7 O           -2.5070     0.0230    -1.1350 o          1 A8C      -0.735500
      8 H1           3.0710     1.0800    -1.1800 h1         1 A8C       0.043033
      9 H2           3.0390     1.6290     0.5230 h1         1 A8C       0.043033
     10 H3           4.2530     0.4270    -0.0070 h1         1 A8C       0.043033
     11 H4           0.3660     1.1420     0.6260 h1         1 A8C       0.056200
     12 H5          -0.6200    -1.5350    -0.4320 hc         1 A8C       0.032700
     13 H7           0.3980     0.5950    -1.0690 h1         1 A8C       0.056200
     14 H8          -0.6530    -0.9700     1.3200 hc         1 A8C       0.032700
@<TRIPOS>BOND
     1     1     2 1   
     2     1     8 1   
     3     1     9 1   
     4     1    10 1   
     5     2     3 1   
     6     3     4 1   
     7     3    11 1   
     8     3    13 1   
     9     4     5 1   
    10     4    12 1   
    11     4    14 1   
    12     5     6 1   
    13     5     7 1   
@<TRIPOS>SUBSTRUCTURE
     1 A8C         1 TEMP              0 ****  ****    0 ROOT
