@<TRIPOS>MOLECULE
A8C
   14    13     1     0     0
SMALL
bcc


@<TRIPOS>ATOM
      1 C1           3.2120     0.7650     0.0240 c3         1 A8C       0.003000
      2 S            2.0260    -0.5970     0.0180 ss         1 A8C      -0.435200
      3 C2           0.4630     0.3330    -0.0070 c3         1 A8C       0.082700
      4 C3          -0.7010    -0.6400    -0.0140 c3         1 A8C      -0.210400
      5 C           -2.0920     0.0260    -0.0340 c          1 A8C       0.933600
      6 O1          -2.1360     1.2710    -0.0380 o          1 A8C      -0.840800
      7 O           -3.0640    -0.7550    -0.0430 o          1 A8C      -0.840800
      8 H1           3.1090     1.3820    -0.8680 h1         1 A8C       0.043033
      9 H2           3.0910     1.3900     0.9090 h1         1 A8C       0.043033
     10 H3           4.2120     0.3360     0.0360 h1         1 A8C       0.043033
     11 H4           0.4240     0.9810     0.8700 h1         1 A8C       0.056200
     12 H5          -0.6250    -1.3060    -0.8810 hc         1 A8C       0.032700
     13 H7           0.4450     0.9700    -0.8930 h1         1 A8C       0.056200
     14 H8          -0.6450    -1.2950     0.8620 hc         1 A8C       0.032700
@<TRIPOS>BOND
     1     1     2 1   
     2     1     8 1   
     3     1     9 1   
     4     1    10 1   
     5     2     3 1   
     6     3     4 1   
     7     3    11 1   
     8     3    13 1   
     9     4     5 1   
    10     4    12 1   
    11     4    14 1   
    12     5     6 1   
    13     5     7 1   
@<TRIPOS>SUBSTRUCTURE
     1 A8C         1 TEMP              0 ****  ****    0 ROOT
