@<TRIPOS>MOLECULE
A8D
   30    31     1     0     0
SMALL
bcc


@<TRIPOS>ATOM
      1 CAA          6.7080     0.2990     0.1030 c3         1 A8D       0.127700
      2 CAB         -4.6510    -0.6190     1.3990 c3         1 A8D      -0.249300
      3 OAC         -2.1190    -1.7200    -0.2960 o          1 A8D      -0.542100
      4 OAD         -4.4630    -0.0300    -1.1630 o          1 A8D      -0.591800
      5 OAE         -4.4450     1.8470     0.4990 o          1 A8D      -0.591800
      6 CAF          4.0600     1.2130    -0.1090 ca         1 A8D      -0.166000
      7 CAG          2.7540     1.6490    -0.1910 ca         1 A8D      -0.117000
      8 CAH          3.3610    -1.0990     0.1390 ca         1 A8D      -0.111000
      9 CAI          0.7820    -1.3540     0.0690 cc         1 A8D      -0.096200
     10 NAJ         -2.4110     0.4600     0.2610 ns         1 A8D      -0.660300
     11 NAK          0.3850     0.8440    -0.1410 na         1 A8D      -0.162400
     12 OAL          5.6370    -0.6210     0.1480 os         1 A8D      -0.320900
     13 CAM         -1.6370    -0.6340    -0.0530 c          1 A8D       0.733300
     14 CAN          4.3700    -0.1560     0.0590 ca         1 A8D       0.108100
     15 CAO         -0.1920    -0.3980    -0.0540 cd         1 A8D      -0.159300
     16 CAP          2.0310    -0.6740     0.0480 ca         1 A8D      -0.086800
     17 CAQ          1.7410     0.6990    -0.1040 ca         1 A8D      -0.058200
     18 SAR         -4.0880     0.4880     0.1370 s6         1 A8D       1.248600
     19 HAA          6.6630     1.0240     0.9200 h1         1 A8D       0.039367
     20 HAAA         7.6200    -0.2840     0.2060 h1         1 A8D       0.039367
     21 HAAB         6.7470     0.8410    -0.8450 h1         1 A8D       0.039367
     22 HAB         -4.2660    -0.2830     2.3580 h1         1 A8D       0.111033
     23 HABA        -5.7390    -0.5760     1.3950 h1         1 A8D       0.111033
     24 HABB        -4.3160    -1.6280     1.1770 h1         1 A8D       0.111033
     25 HAF          4.8470     1.9510    -0.1730 ha         1 A8D       0.136000
     26 HAG          2.5360     2.7020    -0.3150 ha         1 A8D       0.136000
     27 HAH          3.6030    -2.1470     0.2650 ha         1 A8D       0.153000
     28 HAI          0.6170    -2.4130     0.1930 ha         1 A8D       0.172000
     29 HNAJ        -2.0020     1.2830     0.6870 hn         1 A8D       0.344500
     30 HNAK        -0.0860     1.6960    -0.4020 hn         1 A8D       0.301700
@<TRIPOS>BOND
     1     1    12 1   
     2     1    19 1   
     3     1    20 1   
     4     1    21 1   
     5     2    18 1   
     6     2    22 1   
     7     2    23 1   
     8     2    24 1   
     9     3    13 2   
    10     4    18 2   
    11     5    18 2   
    12     6     7 ar  
    13     6    14 ar  
    14     6    25 1   
    15     7    17 ar  
    16     7    26 1   
    17     8    14 ar  
    18     8    16 ar  
    19     8    27 1   
    20     9    15 2   
    21     9    16 1   
    22     9    28 1   
    23    10    13 1   
    24    10    18 1   
    25    10    29 1   
    26    11    15 1   
    27    11    17 1   
    28    11    30 1   
    29    12    14 1   
    30    13    15 1   
    31    16    17 ar  
@<TRIPOS>SUBSTRUCTURE
     1 A8D         1 TEMP              0 ****  ****    0 ROOT
