@<TRIPOS>MOLECULE
A8D
   30    31     1     0     0
SMALL
No Charge or Current Charge


@<TRIPOS>ATOM
      1 CAA          6.8370     0.2600     0.0190 c3         1 A8D       0.150900
      2 CAB         -4.6790    -0.3570     1.5380 c3         1 A8D      -0.360100
      3 OAC         -2.0590    -1.9220    -0.1120 o          1 A8D      -0.542100
      4 OAD         -4.5820    -0.6760    -1.0820 o          1 A8D      -0.521000
      5 OAE         -4.6110     1.6820    -0.1340 o          1 A8D      -0.521000
      6 CAF          4.0950     1.2390     0.0970 ca         1 A8D      -0.148000
      7 CAG          2.7510     1.6730     0.1310 ca         1 A8D      -0.099000
      8 CAH          3.3560    -1.0920    -0.0720 ca         1 A8D      -0.093000
      9 CAI          0.7980    -1.3330    -0.0840 cc         1 A8D      -0.146200
     10 NAJ         -2.5150     0.2950     0.0530 ns         1 A8D      -0.593300
     11 NAK          0.3680     0.9070     0.0810 na         1 A8D      -0.212700
     12 OAL          5.6990    -0.6180    -0.0430 os         1 A8D      -0.344100
     13 CAM         -1.6710    -0.7660    -0.0360 c          1 A8D       0.666300
     14 CAN          4.4010    -0.1470    -0.0060 ca         1 A8D       0.108100
     15 CAO         -0.2250    -0.3880    -0.0120 cd         1 A8D      -0.159300
     16 CAP          2.0370    -0.6220    -0.0350 ca         1 A8D      -0.086800
     17 CAQ          1.7390     0.7050     0.0630 ca         1 A8D      -0.058200
     18 SAR         -4.1790     0.2840    -0.0500 s6         1 A8D       1.217800
     19 HAA          6.8370     0.8330     0.9550 h1         1 A8D       0.039367
     20 HAAA         7.7670    -0.3190    -0.0260 h1         1 A8D       0.039367
     21 HAAB         6.8330     0.9630    -0.8250 h1         1 A8D       0.039367
     22 HAB         -4.2790     0.3120     2.3050 h1         1 A8D       0.111033
     23 HABA        -5.7730    -0.3730     1.5530 h1         1 A8D       0.111033
     24 HABB        -4.2650    -1.3660     1.6310 h1         1 A8D       0.111033
     25 HAF          4.8810     1.9870     0.1490 ha         1 A8D       0.118000
     26 HAG          2.5090     2.7310     0.2090 ha         1 A8D       0.118000
     27 HAH          3.5710    -2.1540    -0.1500 ha         1 A8D       0.135000
     28 HAI          0.6620    -2.4100    -0.1620 ha         1 A8D       0.222000
     29 HNAJ        -2.1510     1.2270     0.1150 hn         1 A8D       0.344500
     30 HNAK        -0.1030     1.8040     0.1480 hn         1 A8D       0.352000
@<TRIPOS>BOND
     1     1    12 1   
     2     1    19 1   
     3     1    20 1   
     4     1    21 1   
     5     2    18 1   
     6     2    22 1   
     7     2    23 1   
     8     2    24 1   
     9     3    13 2   
    10     4    18 2   
    11     5    18 2   
    12     6     7 ar  
    13     6    14 ar  
    14     6    25 1   
    15     7    17 ar  
    16     7    26 1   
    17     8    14 ar  
    18     8    16 ar  
    19     8    27 1   
    20     9    15 2   
    21     9    16 1   
    22     9    28 1   
    23    10    13 1   
    24    10    18 1   
    25    10    29 1   
    26    11    15 1   
    27    11    17 1   
    28    11    30 1   
    29    12    14 1   
    30    13    15 1   
    31    16    17 ar  
@<TRIPOS>SUBSTRUCTURE
     1 A8D         1 TEMP              0 ****  ****    0 ROOT
