@<TRIPOS>MOLECULE
A8E
   16    15     1     0     0
SMALL
bcc


@<TRIPOS>ATOM
      1 O            7.6720    -0.4420    -1.6180 o          1 A8E      -0.833300
      2 C            6.5280    -0.4960    -1.1230 c          1 A8E       0.941600
      3 N            5.9810    -2.3800    -2.5820 n8         1 A8E      -0.882800
      4 OXT          6.1770    -0.0790    -0.0050 o          1 A8E      -0.833300
      5 BR           1.3210    -1.9070    -1.2850 br         1 A8E      -0.183700
      6 CA           5.4500    -1.1260    -2.0500 c3         1 A8E       0.018500
      7 CB           4.1280    -1.3730    -1.3360 c3         1 A8E      -0.031200
      8 CG           2.9500    -1.5720    -2.2400 c2         1 A8E       0.004500
      9 CD1          2.8930    -1.5190    -3.5620 c2         1 A8E      -0.241000
     10 HN           5.3970    -2.7180    -3.3370 hn         1 A8E       0.321800
     11 HNA          6.8850    -2.1830    -2.9910 hn         1 A8E       0.321800
     12 HA           5.2770    -0.3780    -2.8440 h1         1 A8E      -0.002300
     13 HB           4.2330    -2.2540    -0.6950 hc         1 A8E       0.080700
     14 HBA          3.9150    -0.5390    -0.6660 hc         1 A8E       0.080700
     15 HD1          3.7890    -1.3280    -4.1380 ha         1 A8E       0.118000
     16 HD1A         1.9790    -1.6600    -4.1220 ha         1 A8E       0.118000
@<TRIPOS>BOND
     1     1     2 1   
     2     2     4 1   
     3     2     6 1   
     4     3     6 1   
     5     3    10 1   
     6     3    11 1   
     7     5     8 1   
     8     6     7 1   
     9     6    12 1   
    10     7     8 1   
    11     7    13 1   
    12     7    14 1   
    13     8     9 2   
    14     9    15 1   
    15     9    16 1   
@<TRIPOS>SUBSTRUCTURE
     1 A8E         1 TEMP              0 ****  ****    0 ROOT
