@<TRIPOS>MOLECULE
A8E
   16    15     1     0     0
SMALL
No Charge or Current Charge


@<TRIPOS>ATOM
      1 O            7.6610    -0.1340    -1.7550 o          1 A8E      -0.728000
      2 C            6.6400    -0.4780    -1.1720 c          1 A8E       0.731000
      3 N            5.8470    -2.8460    -2.0000 n8         1 A8E      -0.993200
      4 OXT          6.4000    -0.1660    -0.0120 o          1 A8E      -0.728000
      5 Br           2.3890    -3.3290    -2.0550 br         1 A8E      -0.183700
      6 CA           5.5860    -1.3610    -1.9750 c3         1 A8E       0.018500
      7 CB           4.1250    -1.0620    -1.5340 c3         1 A8E      -0.031200
      8 CG           3.0700    -1.6000    -2.4870 c2         1 A8E       0.004500
      9 CD1          2.5880    -0.9270    -3.5400 c2         1 A8E      -0.341000
     10 HN           5.1410    -3.2980    -2.5940 hn         1 A8E       0.377000
     11 HNA          6.7340    -3.0240    -2.4870 hn         1 A8E       0.377000
     12 HA           5.6620    -1.0340    -3.0220 h1         1 A8E      -0.002300
     13 HB           3.9570    -1.4410    -0.5180 hc         1 A8E       0.080700
     14 HBA          4.0100     0.0270    -1.4650 hc         1 A8E       0.080700
     15 HD1          2.9480     0.0690    -3.7960 ha         1 A8E       0.168000
     16 HD1A         1.8160    -1.3520    -4.1820 ha         1 A8E       0.168000
@<TRIPOS>BOND
     1     1     2 1   
     2     2     4 1   
     3     2     6 1   
     4     3     6 1   
     5     3    10 1   
     6     3    11 1   
     7     5     8 1   
     8     6     7 1   
     9     6    12 1   
    10     7     8 1   
    11     7    13 1   
    12     7    14 1   
    13     8     9 2   
    14     9    15 1   
    15     9    16 1   
@<TRIPOS>SUBSTRUCTURE
     1 A8E         1 TEMP              0 ****  ****    0 ROOT
