@<TRIPOS>MOLECULE
A8F
   46    48     1     0     0
SMALL
bcc


@<TRIPOS>ATOM
      1 O21         -2.3140    -1.4490     0.7360 o          1 A8F      -0.529100
      2 C12         -2.1590    -0.3050     0.3470 c          1 A8F       0.610700
      3 C13         -3.3420     0.6220     0.1170 c3         1 A8F       0.072800
      4 N14         -4.6230    -0.0170     0.2630 n3         1 A8F      -0.700600
      5 C15         -4.9530    -0.8390    -0.8910 c6         1 A8F       0.169300
      6 C16         -6.2540    -1.5960    -0.6720 c6         1 A8F      -0.074900
      7 C17         -7.3930    -0.6360    -0.3580 c6         1 A8F      -0.075400
      8 C18         -7.0020     0.2740     0.7990 c6         1 A8F      -0.074900
      9 C19         -5.6710     0.9570     0.5270 c6         1 A8F       0.169300
     10 C9          -0.8450     0.2710     0.0960 cc         1 A8F      -0.259600
     11 C10         -0.5570     1.5880    -0.3810 cc         1 A8F      -0.156000
     12 C11          0.7950     1.7200    -0.4600 cd         1 A8F      -0.107600
     13 C23          1.6290     2.8650    -0.9080 c3         1 A8F      -0.023800
     14 C8           0.3700    -0.3670     0.2980 cd         1 A8F      -0.006600
     15 C22          0.6840    -1.7370     0.7850 c3         1 A8F      -0.037800
     16 N7           1.3450     0.5200    -0.0430 na         1 A8F       0.001800
     17 C5           2.7390     0.2610    -0.0090 ca         1 A8F      -0.014200
     18 C4           3.5190     0.8120     0.9970 ca         1 A8F      -0.110000
     19 C3           4.8840     0.5710     1.0290 ca         1 A8F      -0.117000
     20 C6           3.3170    -0.5380    -0.9860 ca         1 A8F      -0.110000
     21 C1           4.6790    -0.7920    -0.9570 ca         1 A8F      -0.117000
     22 C2           5.4500    -0.2330     0.0510 ca         1 A8F       0.032400
     23 CL1          7.1520    -0.5440     0.0890 cl         1 A8F      -0.098400
     24 H1          -3.2530     1.4250     0.8580 h1         1 A8F       0.048200
     25 H2          -3.2230     1.1180    -0.8620 h1         1 A8F       0.048200
     26 H4          -5.0400    -0.2200    -1.8030 h1         1 A8F       0.028950
     27 H5          -4.1450    -1.5490    -1.0700 h1         1 A8F       0.028950
     28 H6          -6.4780    -2.1900    -1.5620 hc         1 A8F       0.046700
     29 H7          -6.1210    -2.2980     0.1560 hc         1 A8F       0.046700
     30 H8          -7.6080    -0.0270    -1.2430 hc         1 A8F       0.036200
     31 H9          -8.3090    -1.1830    -0.1250 hc         1 A8F       0.036200
     32 H10         -7.7670     1.0350     0.9700 hc         1 A8F       0.046700
     33 H11         -6.9230    -0.3130     1.7200 hc         1 A8F       0.046700
     34 H12         -5.3800     1.5540     1.3950 h1         1 A8F       0.028950
     35 H13         -5.7920     1.6610    -0.3160 h1         1 A8F       0.028950
     36 H14         -1.2680     2.3560    -0.6410 ha         1 A8F       0.151000
     37 H15          2.2080     3.3050    -0.0940 hc         1 A8F       0.047033
     38 H16          2.3340     2.5810    -1.6910 hc         1 A8F       0.047033
     39 H17          0.9860     3.6460    -1.3100 hc         1 A8F       0.047033
     40 H18          0.5730    -2.4760    -0.0110 hc         1 A8F       0.059367
     41 H19          1.7060    -1.8060     1.1540 hc         1 A8F       0.059367
     42 H20          0.0130    -2.0270     1.5880 hc         1 A8F       0.059367
     43 H21          3.0630     1.4250     1.7640 ha         1 A8F       0.153000
     44 H22          5.4930     0.9990     1.8120 ha         1 A8F       0.154500
     45 H23          2.7080    -0.9620    -1.7730 ha         1 A8F       0.153000
     46 H24          5.1330    -1.4140    -1.7160 ha         1 A8F       0.154500
@<TRIPOS>BOND
     1     1     2 2   
     2     2     3 1   
     3     2    10 1   
     4     3     4 1   
     5     3    24 1   
     6     3    25 1   
     7     4     5 1   
     8     4     9 1   
     9     5     6 1   
    10     5    26 1   
    11     5    27 1   
    12     6     7 1   
    13     6    28 1   
    14     6    29 1   
    15     7     8 1   
    16     7    30 1   
    17     7    31 1   
    18     8     9 1   
    19     8    32 1   
    20     8    33 1   
    21     9    34 1   
    22     9    35 1   
    23    10    11 1   
    24    10    14 2   
    25    11    12 2   
    26    11    36 1   
    27    12    13 1   
    28    12    16 1   
    29    13    37 1   
    30    13    38 1   
    31    13    39 1   
    32    14    15 1   
    33    14    16 1   
    34    15    40 1   
    35    15    41 1   
    36    15    42 1   
    37    16    17 1   
    38    17    18 ar  
    39    17    20 ar  
    40    18    19 ar  
    41    18    43 1   
    42    19    22 ar  
    43    19    44 1   
    44    20    21 ar  
    45    20    45 1   
    46    21    22 ar  
    47    21    46 1   
    48    22    23 1   
@<TRIPOS>SUBSTRUCTURE
     1 A8F         1 TEMP              0 ****  ****    0 ROOT
