@<TRIPOS>MOLECULE
A8F
   46    48     1     0     0
SMALL
No Charge or Current Charge


@<TRIPOS>ATOM
      1 O21         -2.1480    -1.6200     0.6490 o          1 A8F      -0.529100
      2 C12         -2.0190    -0.4690     0.2370 c          1 A8F       0.610700
      3 C13         -3.2300     0.5180     0.1660 c3         1 A8F       0.072800
      4 N14         -4.6210     0.0010     0.3990 n3         1 A8F      -0.700600
      5 C15         -5.0680    -0.9550    -0.6570 c6         1 A8F       0.169300
      6 C16         -6.4570    -1.5580    -0.3300 c6         1 A8F      -0.074900
      7 C17         -7.5100    -0.4460    -0.1180 c6         1 A8F      -0.075400
      8 C18         -7.0120     0.5610     0.9430 c6         1 A8F      -0.074900
      9 C19         -5.6070     1.1030     0.5810 c6         1 A8F       0.169300
     10 C9          -0.6950     0.0610    -0.2110 cc         1 A8F      -0.259600
     11 C10         -0.4460     1.3930    -0.6480 cc         1 A8F      -0.138000
     12 C11          0.8840     1.5450    -0.9270 cd         1 A8F      -0.158300
     13 C23          1.6520     2.7780    -1.3360 c3         1 A8F      -0.023800
     14 C8           0.4970    -0.6350    -0.2250 cd         1 A8F      -0.057300
     15 C22          0.8190    -2.0520     0.1970 c3         1 A8F      -0.037800
     16 N7           1.4210     0.2660    -0.7700 na         1 A8F       0.103200
     17 C5           2.7240     0.2100    -0.2700 ca         1 A8F      -0.014200
     18 C4           2.9940     0.5370     1.0760 ca         1 A8F      -0.092000
     19 C3           4.3100     0.4770     1.5670 ca         1 A8F      -0.099000
     20 C6           3.7810    -0.1740    -1.1180 ca         1 A8F      -0.092000
     21 C1           5.0970    -0.2340    -0.6250 ca         1 A8F      -0.099000
     22 C2           5.3590     0.0920     0.7160 ca         1 A8F       0.124000
     23 Cl1          7.0050     0.0180     1.3310 cl         1 A8F      -0.190000
     24 H1          -3.0050     1.3030     0.9000 h1         1 A8F       0.048200
     25 H2          -3.1880     0.9960    -0.8210 h1         1 A8F       0.048200
     26 H4          -5.1200    -0.4450    -1.6300 h1         1 A8F       0.028950
     27 H5          -4.3500    -1.7800    -0.7650 h1         1 A8F       0.028950
     28 H6          -6.7730    -2.2250    -1.1440 hc         1 A8F       0.046700
     29 H7          -6.3830    -2.1780     0.5740 hc         1 A8F       0.046700
     30 H8          -7.6950     0.0760    -1.0670 hc         1 A8F       0.036200
     31 H9          -8.4680    -0.8850     0.1940 hc         1 A8F       0.036200
     32 H10         -7.7210     1.3950     1.0320 hc         1 A8F       0.046700
     33 H11         -6.9740     0.0750     1.9280 hc         1 A8F       0.046700
     34 H12         -5.2770     1.7810     1.3820 h1         1 A8F       0.028950
     35 H13         -5.6800     1.7010    -0.3390 h1         1 A8F       0.028950
     36 H14         -1.1870     2.1860    -0.6960 ha         1 A8F       0.133000
     37 H15          2.2280     3.1800    -0.4940 hc         1 A8F       0.047033
     38 H16          2.3540     2.5550    -2.1490 hc         1 A8F       0.047033
     39 H17          0.9760     3.5670    -1.6870 hc         1 A8F       0.047033
     40 H18          0.1440    -2.7680    -0.2860 hc         1 A8F       0.059367
     41 H19          1.8410    -2.3400    -0.0730 hc         1 A8F       0.059367
     42 H20          0.7150    -2.1690     1.2820 hc         1 A8F       0.059367
     43 H21          2.1830     0.8370     1.7370 ha         1 A8F       0.135000
     44 H22          4.5170     0.7290     2.6040 ha         1 A8F       0.136500
     45 H23          3.5810    -0.4270    -2.1580 ha         1 A8F       0.135000
     46 H24          5.9120    -0.5310    -1.2800 ha         1 A8F       0.136500
@<TRIPOS>BOND
     1     1     2 2   
     2     2     3 1   
     3     2    10 1   
     4     3     4 1   
     5     3    24 1   
     6     3    25 1   
     7     4     5 1   
     8     4     9 1   
     9     5     6 1   
    10     5    26 1   
    11     5    27 1   
    12     6     7 1   
    13     6    28 1   
    14     6    29 1   
    15     7     8 1   
    16     7    30 1   
    17     7    31 1   
    18     8     9 1   
    19     8    32 1   
    20     8    33 1   
    21     9    34 1   
    22     9    35 1   
    23    10    11 1   
    24    10    14 2   
    25    11    12 2   
    26    11    36 1   
    27    12    13 1   
    28    12    16 1   
    29    13    37 1   
    30    13    38 1   
    31    13    39 1   
    32    14    15 1   
    33    14    16 1   
    34    15    40 1   
    35    15    41 1   
    36    15    42 1   
    37    16    17 1   
    38    17    18 ar  
    39    17    20 ar  
    40    18    19 ar  
    41    18    43 1   
    42    19    22 ar  
    43    19    44 1   
    44    20    21 ar  
    45    20    45 1   
    46    21    22 ar  
    47    21    46 1   
    48    22    23 1   
@<TRIPOS>SUBSTRUCTURE
     1 A8F         1 TEMP              0 ****  ****    0 ROOT
