@<TRIPOS>MOLECULE
A8G
   12    12     1     0     0
SMALL
No Charge or Current Charge


@<TRIPOS>ATOM
      1 C01         10.6920    49.6600    49.0880 cy         1 A8G      -0.126400
      2 C02         11.3710    49.5230    50.4900 cy         1 A8G       0.136600
      3 C04         11.2980    48.2210    48.8860 cy         1 A8G       0.022300
      4 C05         12.0500    48.5210    47.4850 c          1 A8G       0.717000
      5 O03         12.3420    48.6040    49.8700 oq         1 A8G      -0.451000
      6 O06         11.4120    48.5820    46.4400 o          1 A8G      -0.724000
      7 O07         13.2680    48.6350    47.3720 o          1 A8G      -0.724000
      8 H1          11.1000    50.4820    48.4870 hc         1 A8G       0.041200
      9 H2           9.6000    49.7240    49.0930 hc         1 A8G       0.041200
     10 H3          11.8410    50.4310    50.8840 h1         1 A8G       0.016200
     11 H4          10.7620    49.0150    51.2480 h1         1 A8G       0.016200
     12 H5          10.7200    47.3140    49.0930 h1         1 A8G       0.034700
@<TRIPOS>BOND
     1     1     2 1   
     2     1     3 1   
     3     1     8 1   
     4     1     9 1   
     5     2     5 1   
     6     2    10 1   
     7     2    11 1   
     8     3     4 1   
     9     3     5 1   
    10     3    12 1   
    11     4     6 1   
    12     4     7 1   
@<TRIPOS>SUBSTRUCTURE
     1 A8G         1 TEMP              0 ****  ****    0 ROOT
