@<TRIPOS>MOLECULE
A8G
   12    12     1     0     0
SMALL
bcc


@<TRIPOS>ATOM
      1 C01         10.5610    49.6110    49.1800 cy         1 A8G      -0.126400
      2 C02         11.4210    49.5470    50.4430 cy         1 A8G       0.113400
      3 C04         11.3490    48.3590    48.7610 cy         1 A8G      -0.000900
      4 C05         12.1950    48.5100    47.4910 c          1 A8G       0.927600
      5 O03         12.0690    48.3510    50.0060 oq         1 A8G      -0.404600
      6 O06         11.5110    48.6200    46.4530 o          1 A8G      -0.829300
      7 O07         13.4330    48.5140    47.5970 o          1 A8G      -0.829300
      8 H1          10.7020    50.4890    48.5510 hc         1 A8G       0.041200
      9 H2           9.4940    49.4590    49.3380 hc         1 A8G       0.041200
     10 H3          12.1210    50.3800    50.5710 h1         1 A8G       0.016200
     11 H4          10.8740    49.4120    51.3810 h1         1 A8G       0.016200
     12 H5          10.7250    47.4610    48.6640 h1         1 A8G       0.034700
@<TRIPOS>BOND
     1     1     2 1   
     2     1     3 1   
     3     1     8 1   
     4     1     9 1   
     5     2     5 1   
     6     2    10 1   
     7     2    11 1   
     8     3     4 1   
     9     3     5 1   
    10     3    12 1   
    11     4     6 1   
    12     4     7 1   
@<TRIPOS>SUBSTRUCTURE
     1 A8G         1 TEMP              0 ****  ****    0 ROOT
