@<TRIPOS>MOLECULE
A8H
   32    34     1     0     0
SMALL
No Charge or Current Charge


@<TRIPOS>ATOM
      1 C12          4.3190     0.8100    -0.9620 ca         1 A8H      -0.109000
      2 C13          2.9170     0.7390    -1.0330 ca         1 A8H      -0.105000
      3 C11          5.0130     0.0690     0.0090 ca         1 A8H      -0.108000
      4 C10          4.3040    -0.7430     0.9090 ca         1 A8H      -0.109000
      5 C9           2.9020    -0.8150     0.8380 ca         1 A8H      -0.105000
      6 C8           2.1960    -0.0750    -0.1350 ca         1 A8H      -0.078300
      7 C7          -2.1800    -0.9540     0.4420 c5         1 A8H      -0.147700
      8 C4           0.6640    -0.1430    -0.2220 c6         1 A8H      -0.016400
      9 C5           0.1580    -1.5910    -0.4580 c6         1 A8H      -0.070400
     10 C6          -1.3660    -1.6090    -0.7160 c6         1 A8H      -0.067400
     11 C3          -0.0070     0.4410     1.0470 c6         1 A8H      -0.051400
     12 C2          -1.5590     0.3890     0.9820 c5         1 A8H      -0.148700
     13 C1          -2.2830     1.4670     0.1520 c          1 A8H       0.571000
     14 O1          -1.9310     2.5810    -0.1960 o          1 A8H      -0.499000
     15 N           -3.4000     0.8300    -0.2720 ns         1 A8H      -0.487500
     16 C           -3.5590    -0.5020    -0.0780 c          1 A8H       0.569000
     17 O           -4.6090    -1.1120    -0.1850 o          1 A8H      -0.500000
     18 H1           4.8680     1.4400    -1.6590 ha         1 A8H       0.113000
     19 H2           2.3930     1.3190    -1.7900 ha         1 A8H       0.111000
     20 H3           6.0980     0.1240     0.0640 ha         1 A8H       0.113000
     21 H4           4.8390    -1.3170     1.6620 ha         1 A8H       0.113000
     22 H5           2.3670    -1.4470     1.5430 ha         1 A8H       0.111000
     23 H6          -2.3020    -1.7310     1.2060 hc         1 A8H       0.091700
     24 H7           0.3420     0.4670    -1.0790 hc         1 A8H       0.058700
     25 H8           0.6780    -2.0290    -1.3210 hc         1 A8H       0.050200
     26 H9           0.3940    -2.2290     0.4050 hc         1 A8H       0.050200
     27 H10         -1.7090    -2.6400    -0.8770 hc         1 A8H       0.054700
     28 H11         -1.5650    -1.0740    -1.6560 hc         1 A8H       0.054700
     29 H12          0.3270    -0.1270     1.9270 hc         1 A8H       0.059700
     30 H13          0.3280     1.4750     1.2090 hc         1 A8H       0.059700
     31 H14         -1.9140     0.5300     2.0100 hc         1 A8H       0.080700
     32 H15         -4.1250     1.3540    -0.7390 hn         1 A8H       0.342500
@<TRIPOS>BOND
     1     1     2 ar  
     2     1     3 ar  
     3     1    18 1   
     4     2     6 ar  
     5     2    19 1   
     6     3     4 ar  
     7     3    20 1   
     8     4     5 ar  
     9     4    21 1   
    10     5     6 ar  
    11     5    22 1   
    12     6     8 1   
    13     7    10 1   
    14     7    12 1   
    15     7    16 1   
    16     7    23 1   
    17     8     9 1   
    18     8    11 1   
    19     8    24 1   
    20     9    10 1   
    21     9    25 1   
    22     9    26 1   
    23    10    27 1   
    24    10    28 1   
    25    11    12 1   
    26    11    29 1   
    27    11    30 1   
    28    12    13 1   
    29    12    31 1   
    30    13    14 2   
    31    13    15 1   
    32    15    16 1   
    33    15    32 1   
    34    16    17 2   
@<TRIPOS>SUBSTRUCTURE
     1 A8H         1 TEMP              0 ****  ****    0 ROOT
