@<TRIPOS>MOLECULE
A8H
   32    34     1     0     0
SMALL
abcg2


@<TRIPOS>ATOM
      1 C12          4.2860     0.7710    -0.9510 ca         1 A8H      -0.109000
      2 C13          2.9010     0.7010    -1.0380 ca         1 A8H      -0.105000
      3 C11          4.9590     0.0570     0.0300 ca         1 A8H      -0.108000
      4 C10          4.2360    -0.7270     0.9210 ca         1 A8H      -0.109000
      5 C9           2.8520    -0.7920     0.8310 ca         1 A8H      -0.105000
      6 C8           2.1630    -0.0790    -0.1510 ca         1 A8H      -0.078300
      7 C7          -2.1260    -0.9550     0.4760 c5         1 A8H      -0.147700
      8 C4           0.6610    -0.1410    -0.2500 c6         1 A8H      -0.016400
      9 C5           0.1470    -1.5650    -0.4770 c6         1 A8H      -0.070400
     10 C6          -1.3560    -1.5580    -0.7120 c6         1 A8H      -0.067400
     11 C3           0.0020     0.4490     0.9980 c6         1 A8H      -0.051400
     12 C2          -1.5150     0.3570     0.9820 c5         1 A8H      -0.148700
     13 C1          -2.2360     1.4070     0.1640 c          1 A8H       0.571000
     14 O1          -1.9070     2.5480    -0.0450 o          1 A8H      -0.499000
     15 N           -3.4090     0.8300    -0.2710 ns         1 A8H      -0.487500
     16 C           -3.4820    -0.5240    -0.0330 c          1 A8H       0.569000
     17 O           -4.4430    -1.2160    -0.2680 o          1 A8H      -0.500000
     18 H1           4.8390     1.3840    -1.6510 ha         1 A8H       0.113000
     19 H2           2.3850     1.2590    -1.8110 ha         1 A8H       0.111000
     20 H3           6.0380     0.1090     0.1020 ha         1 A8H       0.113000
     21 H4           4.7510    -1.2870     1.6910 ha         1 A8H       0.113000
     22 H5           2.3080    -1.4080     1.5380 ha         1 A8H       0.111000
     23 H6          -2.2230    -1.6970     1.2700 hc         1 A8H       0.091700
     24 H7           0.3600     0.4570    -1.1190 hc         1 A8H       0.058700
     25 H8           0.6450    -2.0080    -1.3420 hc         1 A8H       0.050200
     26 H9           0.3890    -2.1950     0.3850 hc         1 A8H       0.050200
     27 H10         -1.7230    -2.5680    -0.8950 hc         1 A8H       0.054700
     28 H11         -1.5590    -0.9840    -1.6230 hc         1 A8H       0.054700
     29 H12          0.3640    -0.0890     1.8780 hc         1 A8H       0.059700
     30 H13          0.3010     1.4900     1.1340 hc         1 A8H       0.059700
     31 H14         -1.8730     0.5230     2.0060 hc         1 A8H       0.080700
     32 H15         -4.1380     1.3480    -0.7450 hn         1 A8H       0.342500
@<TRIPOS>BOND
     1     1     2 ar  
     2     1     3 ar  
     3     1    18 1   
     4     2     6 ar  
     5     2    19 1   
     6     3     4 ar  
     7     3    20 1   
     8     4     5 ar  
     9     4    21 1   
    10     5     6 ar  
    11     5    22 1   
    12     6     8 1   
    13     7    10 1   
    14     7    12 1   
    15     7    16 1   
    16     7    23 1   
    17     8     9 1   
    18     8    11 1   
    19     8    24 1   
    20     9    10 1   
    21     9    25 1   
    22     9    26 1   
    23    10    27 1   
    24    10    28 1   
    25    11    12 1   
    26    11    29 1   
    27    11    30 1   
    28    12    13 1   
    29    12    31 1   
    30    13    14 2   
    31    13    15 1   
    32    15    16 1   
    33    15    32 1   
    34    16    17 2   
@<TRIPOS>SUBSTRUCTURE
     1 A8H         1 TEMP              0 ****  ****    0 ROOT
