@<TRIPOS>MOLECULE
A8I
   26    27     1     0     0
SMALL
abcg2


@<TRIPOS>ATOM
      1 C15         13.3880    55.0900    92.5250 ca         1 A8I      -0.128000
      2 C16         12.3030    55.8590    92.9290 ca         1 A8I      -0.101000
      3 C17          8.9560    54.9860    86.9480 c          1 A8I       0.715600
      4 C12         10.8350    54.4710    91.6250 ca         1 A8I      -0.062500
      5 C10          8.8320    52.4630    87.2350 ca         1 A8I      -0.058000
      6 C11          9.2250    51.2770    87.8440 ca         1 A8I      -0.162000
      7 C13         13.1960    54.0060    91.6840 ca         1 A8I      -0.062500
      8 C14         11.0260    55.5420    92.4860 ca         1 A8I      -0.128000
      9 C04         10.7070    52.5100    89.2830 ca         1 A8I      -0.211600
     10 C05         11.9190    53.6970    91.2140 ca         1 A8I      -0.152600
     11 C06         11.7420    52.4970    90.3490 c          1 A8I       0.602300
     12 C07         10.3110    53.6900    88.6570 ca         1 A8I      -0.047000
     13 C08          9.3760    53.6820    87.6270 ca         1 A8I      -0.153600
     14 C09         10.1670    51.2950    88.8580 ca         1 A8I      -0.084000
     15 O01         12.4420    51.5170    90.5200 o          1 A8I      -0.559100
     16 O02          8.0900    54.8910    86.0590 o          1 A8I      -0.716500
     17 O03          9.5180    56.0230    87.3480 o          1 A8I      -0.716500
     18 H1          14.3840    55.3360    92.8690 ha         1 A8I       0.107000
     19 H2          12.4530    56.7010    93.5920 ha         1 A8I       0.101000
     20 H3           9.8340    54.2290    91.2910 ha         1 A8I       0.127000
     21 H4           8.0960    52.4410    86.4420 ha         1 A8I       0.128000
     22 H5           8.7950    50.3360    87.5260 ha         1 A8I       0.091000
     23 H6          14.0440    53.4080    91.3760 ha         1 A8I       0.127000
     24 H7          10.1770    56.1290    92.8090 ha         1 A8I       0.107000
     25 H8          10.7450    54.6360    88.9520 ha         1 A8I       0.136000
     26 H9          10.4720    50.3700    89.3300 ha         1 A8I       0.102000
@<TRIPOS>BOND
     1     1     2 ar  
     2     1     7 ar  
     3     1    18 1   
     4     2     8 ar  
     5     2    19 1   
     6     3    13 1   
     7     3    16 1   
     8     3    17 1   
     9     4     8 ar  
    10     4    10 ar  
    11     4    20 1   
    12     5     6 ar  
    13     5    13 ar  
    14     5    21 1   
    15     6    14 ar  
    16     6    22 1   
    17     7    10 ar  
    18     7    23 1   
    19     8    24 1   
    20     9    11 1   
    21     9    12 ar  
    22     9    14 ar  
    23    10    11 1   
    24    11    15 2   
    25    12    13 ar  
    26    12    25 1   
    27    14    26 1   
@<TRIPOS>SUBSTRUCTURE
     1 A8I         1 TEMP              0 ****  ****    0 ROOT
