@<TRIPOS>MOLECULE
A8I
   26    27     1     0     0
SMALL
No Charge or Current Charge


@<TRIPOS>ATOM
      1 C15         13.3910    55.1140    92.6060 ca         1 A8I      -0.128000
      2 C16         12.2710    55.8770    92.9710 ca         1 A8I      -0.101000
      3 C17          8.9540    54.9870    86.9190 c          1 A8I       0.715600
      4 C12         10.8530    54.4420    91.6060 ca         1 A8I      -0.062500
      5 C10          8.7520    52.4680    87.2510 ca         1 A8I      -0.058000
      6 C11          9.1410    51.2720    87.8740 ca         1 A8I      -0.162000
      7 C13         13.2460    54.0160    91.7390 ca         1 A8I      -0.062500
      8 C14         11.0030    55.5380    92.4740 ca         1 A8I      -0.128000
      9 C04         10.7510    52.4890    89.2440 ca         1 A8I      -0.211600
     10 C05         11.9770    53.6770    91.2190 ca         1 A8I      -0.152600
     11 C06         11.8350    52.4840    90.3000 c          1 A8I       0.602300
     12 C07         10.3670    53.6880    88.6000 ca         1 A8I      -0.047000
     13 C08          9.3630    53.6930    87.6020 ca         1 A8I      -0.153600
     14 C09         10.1380    51.2780    88.8610 ca         1 A8I      -0.084000
     15 O01         12.5890    51.5220    90.4080 o          1 A8I      -0.559100
     16 O02          8.0770    54.9470    86.0680 o          1 A8I      -0.716500
     17 O03          9.5170    56.0230    87.2440 o          1 A8I      -0.716500
     18 H1          14.3740    55.3710    92.9950 ha         1 A8I       0.107000
     19 H2          12.3850    56.7250    93.6430 ha         1 A8I       0.101000
     20 H3           9.8580    54.1830    91.2490 ha         1 A8I       0.127000
     21 H4           7.9770    52.4370    86.4870 ha         1 A8I       0.128000
     22 H5           8.6680    50.3350    87.5900 ha         1 A8I       0.091000
     23 H6          14.1240    53.4340    91.4650 ha         1 A8I       0.127000
     24 H7          10.1320    56.1220    92.7640 ha         1 A8I       0.107000
     25 H8          10.8600    54.6210    88.8660 ha         1 A8I       0.136000
     26 H9          10.4280    50.3420    89.3340 ha         1 A8I       0.102000
@<TRIPOS>BOND
     1     1     2 ar  
     2     1     7 ar  
     3     1    18 1   
     4     2     8 ar  
     5     2    19 1   
     6     3    13 1   
     7     3    16 1   
     8     3    17 1   
     9     4     8 ar  
    10     4    10 ar  
    11     4    20 1   
    12     5     6 ar  
    13     5    13 ar  
    14     5    21 1   
    15     6    14 ar  
    16     6    22 1   
    17     7    10 ar  
    18     7    23 1   
    19     8    24 1   
    20     9    11 1   
    21     9    12 ar  
    22     9    14 ar  
    23    10    11 1   
    24    11    15 2   
    25    12    13 ar  
    26    12    25 1   
    27    14    26 1   
@<TRIPOS>SUBSTRUCTURE
     1 A8I         1 TEMP              0 ****  ****    0 ROOT
