@<TRIPOS>MOLECULE
A8J
   32    32     1     0     0
SMALL
abcg2


@<TRIPOS>ATOM
      1 C14        -15.4290    16.2550    71.6320 ca         1 A8J      -0.140000
      2 C13        -14.4520    15.3580    72.0390 ca         1 A8J      -0.033000
      3 C11        -10.3240    11.9700    71.2050 c3         1 A8J      -0.108100
      4 C10         -9.0980    13.8160    70.0610 c3         1 A8J      -0.108100
      5 C01        -12.5290    17.7270    67.8550 c3         1 A8J      -0.196100
      6 C02        -13.8130    17.8590    68.6260 c          1 A8J       0.585700
      7 C03        -14.0220    16.9730    69.8090 ca         1 A8J      -0.196600
      8 C04        -13.0510    16.0640    70.2180 ca         1 A8J      -0.022000
      9 C05        -13.2570    15.2580    71.3330 ca         1 A8J      -0.156600
     10 C06        -12.2260    14.2890    71.8090 c          1 A8J       0.622700
     11 C08         -9.9890    13.4540    71.2410 c3         1 A8J       0.210000
     12 C09         -9.3150    13.8570    72.5460 c3         1 A8J      -0.108100
     13 C15        -15.2160    17.0600    70.5260 ca         1 A8J      -0.031000
     14 O07        -11.1820    14.2600    71.0070 os         1 A8J      -0.465100
     15 O12        -12.3670    13.6320    72.8110 o          1 A8J      -0.495000
     16 O16        -14.6650    18.6590    68.3040 o          1 A8J      -0.523100
     17 H1         -16.3570    16.3260    72.1830 ha         1 A8J       0.124000
     18 H2         -14.6210    14.7350    72.9060 ha         1 A8J       0.138000
     19 H3         -10.9130    11.6500    72.0610 hc         1 A8J       0.049811
     20 H4         -10.8620    11.7120    70.2910 hc         1 A8J       0.049811
     21 H5          -9.3950    11.3990    71.2110 hc         1 A8J       0.049811
     22 H6          -8.1610    13.2640    70.1250 hc         1 A8J       0.049811
     23 H7          -9.5730    13.5600    69.1120 hc         1 A8J       0.049811
     24 H8          -8.8610    14.8800    70.0540 hc         1 A8J       0.049811
     25 H9         -12.5140    18.4310    67.0260 hc         1 A8J       0.063033
     26 H10        -11.6660    17.9200    68.4950 hc         1 A8J       0.063033
     27 H11        -12.4140    16.7160    67.4610 hc         1 A8J       0.063033
     28 H12        -12.1230    15.9890    69.6700 ha         1 A8J       0.131000
     29 H13         -9.8880    13.5660    73.4230 hc         1 A8J       0.049811
     30 H14         -8.3430    13.3650    72.6060 hc         1 A8J       0.049811
     31 H15         -9.1410    14.9340    72.5810 hc         1 A8J       0.049811
     32 H16        -15.9810    17.7600    70.2180 ha         1 A8J       0.136000
@<TRIPOS>BOND
     1     1     2 ar  
     2     1    13 ar  
     3     1    17 1   
     4     2     9 ar  
     5     2    18 1   
     6     3    11 1   
     7     3    19 1   
     8     3    20 1   
     9     3    21 1   
    10     4    11 1   
    11     4    22 1   
    12     4    23 1   
    13     4    24 1   
    14     5     6 1   
    15     5    25 1   
    16     5    26 1   
    17     5    27 1   
    18     6     7 1   
    19     6    16 2   
    20     7     8 ar  
    21     7    13 ar  
    22     8     9 ar  
    23     8    28 1   
    24     9    10 1   
    25    10    14 1   
    26    10    15 2   
    27    11    12 1   
    28    11    14 1   
    29    12    29 1   
    30    12    30 1   
    31    12    31 1   
    32    13    32 1   
@<TRIPOS>SUBSTRUCTURE
     1 A8J         1 TEMP              0 ****  ****    0 ROOT
