@<TRIPOS>MOLECULE
A8J
   32    32     1     0     0
SMALL
No Charge or Current Charge


@<TRIPOS>ATOM
      1 C14        -15.4520    16.2900    71.6760 ca         1 A8J      -0.140000
      2 C13        -14.4580    15.3890    72.0860 ca         1 A8J      -0.033000
      3 C11        -10.3550    11.9550    71.1450 c3         1 A8J      -0.108100
      4 C10         -8.9560    13.7940    70.1050 c3         1 A8J      -0.108100
      5 C01        -12.5930    17.7760    67.7460 c3         1 A8J      -0.196100
      6 C02        -13.8840    17.8690    68.5640 c          1 A8J       0.585700
      7 C03        -14.0660    16.9950    69.7900 ca         1 A8J      -0.196600
      8 C04        -13.0680    16.0820    70.2120 ca         1 A8J      -0.022000
      9 C05        -13.2550    15.2750    71.3590 ca         1 A8J      -0.156600
     10 C06        -12.1950    14.2970    71.8170 c          1 A8J       0.622700
     11 C08         -9.9310    13.4430    71.2500 c3         1 A8J       0.210000
     12 C09         -9.2900    13.7990    72.6160 c3         1 A8J      -0.108100
     13 C15        -15.2600    17.0880    70.5380 ca         1 A8J      -0.031000
     14 O07        -11.0760    14.2940    71.0120 os         1 A8J      -0.465100
     15 O12        -12.3430    13.5930    72.8070 o          1 A8J      -0.495000
     16 O16        -14.7600    18.6520    68.2160 o          1 A8J      -0.523100
     17 H1         -16.3760    16.3710    72.2440 ha         1 A8J       0.124000
     18 H2         -14.6280    14.7800    72.9730 ha         1 A8J       0.138000
     19 H3         -10.9350    11.6300    72.0150 hc         1 A8J       0.049811
     20 H4         -10.9550    11.7840    70.2440 hc         1 A8J       0.049811
     21 H5          -9.4700    11.3090    71.0880 hc         1 A8J       0.049811
     22 H6          -8.0360    13.2020    70.1800 hc         1 A8J       0.049811
     23 H7          -9.4120    13.5900    69.1280 hc         1 A8J       0.049811
     24 H8          -8.6810    14.8550    70.1380 hc         1 A8J       0.049811
     25 H9         -12.5890    18.4580    66.8880 hc         1 A8J       0.063033
     26 H10        -11.7370    17.9580    68.4050 hc         1 A8J       0.063033
     27 H11        -12.4420    16.7380    67.4310 hc         1 A8J       0.063033
     28 H12        -12.1410    15.9960    69.6500 ha         1 A8J       0.131000
     29 H13         -9.8900    13.4390    73.4590 hc         1 A8J       0.049811
     30 H14         -8.2990    13.3360    72.7050 hc         1 A8J       0.049811
     31 H15         -9.1660    14.8840    72.7170 hc         1 A8J       0.049811
     32 H16        -16.0480    17.7790    70.2420 ha         1 A8J       0.136000
@<TRIPOS>BOND
     1     1     2 ar  
     2     1    13 ar  
     3     1    17 1   
     4     2     9 ar  
     5     2    18 1   
     6     3    11 1   
     7     3    19 1   
     8     3    20 1   
     9     3    21 1   
    10     4    11 1   
    11     4    22 1   
    12     4    23 1   
    13     4    24 1   
    14     5     6 1   
    15     5    25 1   
    16     5    26 1   
    17     5    27 1   
    18     6     7 1   
    19     6    16 2   
    20     7     8 ar  
    21     7    13 ar  
    22     8     9 ar  
    23     8    28 1   
    24     9    10 1   
    25    10    14 1   
    26    10    15 2   
    27    11    12 1   
    28    11    14 1   
    29    12    29 1   
    30    12    30 1   
    31    12    31 1   
    32    13    32 1   
@<TRIPOS>SUBSTRUCTURE
     1 A8J         1 TEMP              0 ****  ****    0 ROOT
