@<TRIPOS>MOLECULE
A8K
   25    26     1     0     0
SMALL
abcg2


@<TRIPOS>ATOM
      1 C11          2.5230    -1.4880    -0.6950 ca         1 A8K      -0.184000
      2 C10          1.4510    -0.6700    -0.9980 ca         1 A8K      -0.035500
      3 C9          -1.4940     0.3000     0.9420 ca         1 A8K      -0.035500
      4 C8          -2.5990    -0.4300     1.3360 ca         1 A8K      -0.184000
      5 C7          -3.6050    -0.7270     0.4150 ca         1 A8K       0.154600
      6 C4          -1.3600     0.7310    -0.3770 ca         1 A8K      -0.163500
      7 C5          -2.3590     0.4270    -1.2920 ca         1 A8K      -0.035500
      8 C6          -3.4810    -0.2910    -0.9010 ca         1 A8K      -0.184000
      9 C3           1.3880     0.6330    -0.5050 ca         1 A8K      -0.163500
     10 C2           2.4340     1.1090     0.2760 ca         1 A8K      -0.035500
     11 C1           3.5240     0.3010     0.5670 ca         1 A8K      -0.184000
     12 S            0.0290     1.7050    -0.8860 ss         1 A8K       0.031000
     13 C            3.5700    -1.0060     0.0920 ca         1 A8K       0.154600
     14 O            4.5860    -1.8460     0.3640 oh         1 A8K      -0.530100
     15 H1           2.5550    -2.5040    -1.0690 ha         1 A8K       0.123000
     16 H2           0.6490    -1.0550    -1.6140 ha         1 A8K       0.125000
     17 H3          -0.7250     0.5310     1.6680 ha         1 A8K       0.125000
     18 H4          -2.6910    -0.7670     2.3610 ha         1 A8K       0.123000
     19 H5          -2.2660     0.7450    -2.3220 ha         1 A8K       0.125000
     20 H6          -4.2500    -0.5220    -1.6300 ha         1 A8K       0.123000
     21 H7           2.3970     2.1140     0.6770 ha         1 A8K       0.125000
     22 H8           4.3260     0.6890     1.1840 ha         1 A8K       0.123000
     23 H9          -5.2860    -1.5920     0.1370 ho         1 A8K       0.466500
     24 H10          5.2380    -1.4130     0.9260 ho         1 A8K       0.466500
     25 O1          -4.6600    -1.4390     0.8530 oh         1 A8K      -0.530100
@<TRIPOS>BOND
     1     1     2 ar  
     2     1    13 ar  
     3     1    15 1   
     4     2     9 ar  
     5     2    16 1   
     6     3     4 ar  
     7     3     6 ar  
     8     3    17 1   
     9     4     5 ar  
    10     4    18 1   
    11     5     8 ar  
    12     5    25 1   
    13     6     7 ar  
    14     6    12 1   
    15     7     8 ar  
    16     7    19 1   
    17     8    20 1   
    18     9    10 ar  
    19     9    12 1   
    20    10    11 ar  
    21    10    21 1   
    22    11    13 ar  
    23    11    22 1   
    24    13    14 1   
    25    14    24 1   
    26    23    25 1   
@<TRIPOS>SUBSTRUCTURE
     1 A8K         1 TEMP              0 ****  ****    0 ROOT
