@<TRIPOS>MOLECULE
A8K
   25    26     1     0     0
SMALL
No Charge or Current Charge


@<TRIPOS>ATOM
      1 C11          2.4290    -1.5380    -0.5200 ca         1 A8K      -0.184000
      2 C10          1.3590    -0.6980    -0.8770 ca         1 A8K      -0.035500
      3 C9          -1.3680     0.1670     0.8440 ca         1 A8K      -0.035500
      4 C8          -2.4680    -0.6080     1.2500 ca         1 A8K      -0.184000
      5 C7          -3.5570    -0.7920     0.3860 ca         1 A8K       0.154600
      6 C4          -1.3580     0.7570    -0.4350 ca         1 A8K      -0.163500
      7 C5          -2.4540     0.5750    -1.2980 ca         1 A8K      -0.035500
      8 C6          -3.5520    -0.2010    -0.8880 ca         1 A8K      -0.184000
      9 C3           1.3870     0.6640    -0.5200 ca         1 A8K      -0.163500
     10 C2           2.4880     1.1820     0.1840 ca         1 A8K      -0.035500
     11 C1           3.5560     0.3380     0.5390 ca         1 A8K      -0.184000
     12 S            0.0340     1.7490    -0.9690 ss         1 A8K       0.031000
     13 C            3.5240    -1.0210     0.1870 ca         1 A8K       0.154600
     14 O            4.5550    -1.8440     0.5280 oh         1 A8K      -0.530100
     15 H1           2.4060    -2.5890    -0.7930 ha         1 A8K       0.123000
     16 H2           0.5130    -1.1040    -1.4280 ha         1 A8K       0.125000
     17 H3          -0.5270     0.3090     1.5200 ha         1 A8K       0.125000
     18 H4          -2.4740    -1.0640     2.2370 ha         1 A8K       0.123000
     19 H5          -2.4520     1.0320    -2.2860 ha         1 A8K       0.125000
     20 H6          -4.3930    -0.3380    -1.5640 ha         1 A8K       0.123000
     21 H7           2.5150     2.2350     0.4580 ha         1 A8K       0.125000
     22 H8           4.4020     0.7480     1.0860 ha         1 A8K       0.123000
     23 H9          -5.2780    -1.5640     0.0660 ho         1 A8K       0.466500
     24 H10          5.2250    -1.3160     1.0120 ho         1 A8K       0.466500
     25 O1          -4.6170    -1.5450     0.7910 oh         1 A8K      -0.530100
@<TRIPOS>BOND
     1     1     2 ar  
     2     1    13 ar  
     3     1    15 1   
     4     2     9 ar  
     5     2    16 1   
     6     3     4 ar  
     7     3     6 ar  
     8     3    17 1   
     9     4     5 ar  
    10     4    18 1   
    11     5     8 ar  
    12     5    25 1   
    13     6     7 ar  
    14     6    12 1   
    15     7     8 ar  
    16     7    19 1   
    17     8    20 1   
    18     9    10 ar  
    19     9    12 1   
    20    10    11 ar  
    21    10    21 1   
    22    11    13 ar  
    23    11    22 1   
    24    13    14 1   
    25    14    24 1   
    26    23    25 1   
@<TRIPOS>SUBSTRUCTURE
     1 A8K         1 TEMP              0 ****  ****    0 ROOT
