@<TRIPOS>MOLECULE
A8L
   47    49     1     0     0
SMALL
No Charge or Current Charge


@<TRIPOS>ATOM
      1 C1           5.4370     0.2740    -0.9470 ca         1 A8L      -0.100000
      2 C2           5.9340    -0.2680     0.2500 ca         1 A8L       0.125000
      3 C3           5.0600    -0.5470     1.3130 ca         1 A8L      -0.100000
      4 C4           3.6850    -0.2840     1.1800 ca         1 A8L      -0.090000
      5 C5           3.1810     0.2580    -0.0190 ca         1 A8L      -0.017200
      6 C6           4.0620     0.5380    -1.0820 ca         1 A8L      -0.090000
      7 C19         -5.3590     1.0450    -0.7110 c6         1 A8L       0.170300
      8 C16         -5.9920    -1.2030     1.0650 c6         1 A8L      -0.092900
      9 C17         -7.0900    -0.1860     0.6860 c6         1 A8L       0.170300
     10 C18         -6.7790     0.4330    -0.6950 c6         1 A8L      -0.092900
     11 C15         -4.5940    -0.5470     1.0020 c6         1 A8L       0.170300
     12 C11          1.2970     1.8120    -0.1760 cc         1 A8L      -0.159300
     13 C10         -0.0540     1.6230    -0.2750 cd         1 A8L      -0.138000
     14 C8           0.8380    -0.4710    -0.2360 cc         1 A8L      -0.056300
     15 C9          -0.3520     0.2290    -0.3090 cd         1 A8L      -0.262600
     16 C13         -2.9310     0.5850    -0.4730 c3         1 A8L       0.071800
     17 O21         -1.8640    -1.6100    -0.4430 o          1 A8L      -0.528100
     18 N14         -4.3250     0.0400    -0.3420 n3         1 A8L      -0.700600
     19 N7           1.8170     0.5220    -0.1510 na         1 A8L       0.104200
     20 Cl1          7.6530    -0.5970     0.4180 cl         1 A8L      -0.189000
     21 H1           6.1170     0.4890    -1.7680 ha         1 A8L       0.137000
     22 H2           5.4480    -0.9650     2.2390 ha         1 A8L       0.137000
     23 H3           3.0100    -0.4980     2.0070 ha         1 A8L       0.135000
     24 H4           3.6810     0.9560    -2.0110 ha         1 A8L       0.135000
     25 H11         -5.1610     1.4440    -1.7170 h1         1 A8L       0.031700
     26 H12         -5.3260     1.8970    -0.0140 h1         1 A8L       0.031700
     27 H13         -6.1720    -1.5930     2.0750 hc         1 A8L       0.057950
     28 H14         -6.0220    -2.0630     0.3820 hc         1 A8L       0.057950
     29 H15         -7.0910     0.6190     1.4370 h1         1 A8L       0.020700
     30 H16         -7.5160     1.2090    -0.9390 hc         1 A8L       0.057950
     31 H17         -6.8530    -0.3340    -1.4780 hc         1 A8L       0.057950
     32 H18         -4.5290     0.2330     1.7760 h1         1 A8L       0.031700
     33 H19         -3.8420    -1.3090     1.2520 h1         1 A8L       0.031700
     34 H20         -0.7810     2.4290    -0.3180 ha         1 A8L       0.132000
     35 H21         -2.7680     1.3410     0.3070 h1         1 A8L       0.048200
     36 H22         -2.8310     1.1070    -1.4340 h1         1 A8L       0.048200
     37 C22          1.1030    -1.9600    -0.2510 c3         1 A8L      -0.036800
     38 C23          2.0860     3.0920    -0.0900 c3         1 A8L      -0.023800
     39 C12         -1.7120    -0.3920    -0.4080 c          1 A8L       0.610700
     40 O20         -8.3690    -0.8270     0.6680 oh         1 A8L      -0.656000
     41 H5           0.7110    -2.4330     0.6570 hc         1 A8L       0.059367
     42 H6           0.6220    -2.4330    -1.1140 hc         1 A8L       0.059367
     43 H7           2.1720    -2.1930    -0.3120 hc         1 A8L       0.059367
     44 H8           2.6510     3.2670    -1.0130 hc         1 A8L       0.047367
     45 H9           1.4240     3.9520     0.0670 hc         1 A8L       0.047367
     46 H10          2.7970     3.0610     0.7440 hc         1 A8L       0.047367
     47 H24         -9.0350    -0.1230     0.5070 ho         1 A8L       0.439000
@<TRIPOS>BOND
     1     1     2 ar  
     2     1     6 ar  
     3     1    21 1   
     4     2     3 ar  
     5     2    20 1   
     6     3     4 ar  
     7     3    22 1   
     8     4     5 ar  
     9     4    23 1   
    10     5     6 ar  
    11     5    19 1   
    12     6    24 1   
    13     7    10 1   
    14     7    18 1   
    15     7    25 1   
    16     7    26 1   
    17     8     9 1   
    18     8    11 1   
    19     8    27 1   
    20     8    28 1   
    21     9    10 1   
    22     9    29 1   
    23     9    40 1   
    24    10    30 1   
    25    10    31 1   
    26    11    18 1   
    27    11    32 1   
    28    11    33 1   
    29    12    13 2   
    30    12    19 1   
    31    12    38 1   
    32    13    15 1   
    33    13    34 1   
    34    14    15 2   
    35    14    19 1   
    36    14    37 1   
    37    15    39 1   
    38    16    18 1   
    39    16    35 1   
    40    16    36 1   
    41    16    39 1   
    42    17    39 2   
    43    37    41 1   
    44    37    42 1   
    45    37    43 1   
    46    38    44 1   
    47    38    45 1   
    48    38    46 1   
    49    40    47 1   
@<TRIPOS>SUBSTRUCTURE
     1 A8L         1 TEMP              0 ****  ****    0 ROOT
