@<TRIPOS>MOLECULE
A8L
   47    49     1     0     0
SMALL
bcc


@<TRIPOS>ATOM
      1 C1           5.2470    -0.0450    -1.1520 ca         1 A8L      -0.118000
      2 C2           5.8300    -0.3320     0.0730 ca         1 A8L       0.033400
      3 C3           5.0840    -0.3440     1.2420 ca         1 A8L      -0.118000
      4 C4           3.7290    -0.0600     1.1800 ca         1 A8L      -0.108000
      5 C5           3.1350     0.2280    -0.0400 ca         1 A8L      -0.017200
      6 C6           3.8900     0.2360    -1.2040 ca         1 A8L      -0.108000
      7 C19         -5.2590     1.0160    -0.7170 c6         1 A8L       0.170300
      8 C16         -5.8970    -1.1850     1.0200 c6         1 A8L      -0.092900
      9 C17         -7.0070    -0.2720     0.5320 c6         1 A8L       0.147100
     10 C18         -6.6100     0.3240    -0.8120 c6         1 A8L      -0.092900
     11 C15         -4.5710    -0.4390     1.0540 c6         1 A8L       0.170300
     12 C11          1.2380     1.8110    -0.0100 cc         1 A8L      -0.108600
     13 C10         -0.1180     1.7050    -0.0620 cd         1 A8L      -0.156000
     14 C8           0.7470    -0.3860    -0.2010 cc         1 A8L      -0.005600
     15 C9          -0.4480     0.3190    -0.1800 cd         1 A8L      -0.262600
     16 C13         -2.9340     0.7140    -0.2680 c3         1 A8L       0.071800
     17 O21         -1.9570    -1.4690    -0.3910 o          1 A8L      -0.528100
     18 N14         -4.2330     0.0950    -0.2550 n3         1 A8L      -0.700600
     19 N7           1.7480     0.5280    -0.0940 na         1 A8L       0.002800
     20 CL1          7.5230    -0.6820     0.1440 cl         1 A8L      -0.097400
     21 H1           5.8380    -0.0410    -2.0570 ha         1 A8L       0.155000
     22 H2           5.5490    -0.5710     2.1910 ha         1 A8L       0.155000
     23 H3           3.1340    -0.0620     2.0840 ha         1 A8L       0.153000
     24 H4           3.4220     0.4620    -2.1530 ha         1 A8L       0.153000
     25 H11         -4.9720     1.3960    -1.7000 h1         1 A8L       0.031700
     26 H12         -5.3410     1.8950    -0.0520 h1         1 A8L       0.031700
     27 H13         -6.1240    -1.5620     2.0210 hc         1 A8L       0.057950
     28 H14         -5.8140    -2.0490     0.3530 hc         1 A8L       0.057950
     29 H15         -7.1120     0.5520     1.2560 h1         1 A8L       0.020700
     30 H16         -7.3590     1.0450    -1.1530 hc         1 A8L       0.057950
     31 H17         -6.5560    -0.4740    -1.5590 hc         1 A8L       0.057950
     32 H18         -4.6300     0.3700     1.8050 h1         1 A8L       0.031700
     33 H19         -3.7850    -1.1170     1.3840 h1         1 A8L       0.031700
     34 H20         -0.8030     2.5370    -0.0220 ha         1 A8L       0.150000
     35 H21         -2.7920     1.4220     0.5670 h1         1 A8L       0.048200
     36 H22         -2.8360     1.3210    -1.1750 h1         1 A8L       0.048200
     37 C22          1.0120    -1.8460    -0.3100 c3         1 A8L      -0.036800
     38 C23          2.1140     3.0040     0.1210 c3         1 A8L      -0.023800
     39 C12         -1.7750    -0.2690    -0.2820 c          1 A8L       0.610700
     40 O20         -8.2040    -1.0180     0.4630 oh         1 A8L      -0.593800
     41 H5           0.7230    -2.3700     0.6020 hc         1 A8L       0.059367
     42 H6           0.4390    -2.2830    -1.1250 hc         1 A8L       0.059367
     43 H7           2.0660    -2.0480    -0.4900 hc         1 A8L       0.059367
     44 H8           2.8050     3.1040    -0.7190 hc         1 A8L       0.047367
     45 H9           1.5020     3.9030     0.1530 hc         1 A8L       0.047367
     46 H10          2.7140     2.9780     1.0330 hc         1 A8L       0.047367
     47 H24         -8.9150    -0.4210     0.2100 ho         1 A8L       0.400000
@<TRIPOS>BOND
     1     1     2 ar  
     2     1     6 ar  
     3     1    21 1   
     4     2     3 ar  
     5     2    20 1   
     6     3     4 ar  
     7     3    22 1   
     8     4     5 ar  
     9     4    23 1   
    10     5     6 ar  
    11     5    19 1   
    12     6    24 1   
    13     7    10 1   
    14     7    18 1   
    15     7    25 1   
    16     7    26 1   
    17     8     9 1   
    18     8    11 1   
    19     8    27 1   
    20     8    28 1   
    21     9    10 1   
    22     9    29 1   
    23     9    40 1   
    24    10    30 1   
    25    10    31 1   
    26    11    18 1   
    27    11    32 1   
    28    11    33 1   
    29    12    13 2   
    30    12    19 1   
    31    12    38 1   
    32    13    15 1   
    33    13    34 1   
    34    14    15 2   
    35    14    19 1   
    36    14    37 1   
    37    15    39 1   
    38    16    18 1   
    39    16    35 1   
    40    16    36 1   
    41    16    39 1   
    42    17    39 2   
    43    37    41 1   
    44    37    42 1   
    45    37    43 1   
    46    38    44 1   
    47    38    45 1   
    48    38    46 1   
    49    40    47 1   
@<TRIPOS>SUBSTRUCTURE
     1 A8L         1 TEMP              0 ****  ****    0 ROOT
