@<TRIPOS>MOLECULE
A8M
   50    52     1     0     0
SMALL
abcg2


@<TRIPOS>ATOM
      1 N1          -5.7440     3.7070     0.1760 n8         1 A8M      -0.993200
      2 C2          -5.3720     2.4140     0.7310 c3         1 A8M       0.149800
      3 C4          -4.5770     1.5980    -0.2770 c3         1 A8M      -0.081400
      4 C5          -4.1750     0.2460     0.2970 c3         1 A8M       0.167800
      5 N2          -3.2320    -0.4850    -0.5340 n3         1 A8M      -0.706600
      6 C6          -3.8170    -0.9070    -1.7900 c3         1 A8M       0.149100
      7 C15         -2.6560    -1.5940     0.1930 c3         1 A8M       0.156800
      8 C14         -1.4400    -2.2160    -0.4830 c5         1 A8M       0.169300
      9 O4          -0.5000    -1.2140    -0.8930 os         1 A8M      -0.430000
     10 C1           0.7020    -1.3620    -0.1950 c5         1 A8M       0.317300
     11 N5           1.3110    -0.0760     0.0380 na         1 A8M      -0.286300
     12 C11          2.6110     0.2090    -0.2850 ca         1 A8M       0.139500
     13 N4           3.5160    -0.5920    -0.8400 nb         1 A8M      -0.218000
     14 C10          4.6760     0.0210    -1.0100 ca         1 A8M       0.179900
     15 N3           5.0020     1.2720    -0.7000 nb         1 A8M      -0.303000
     16 C9           4.0780     2.0660    -0.1450 ca         1 A8M       0.448900
     17 N7           4.3960     3.3260     0.1570 nv         1 A8M      -1.066900
     18 C12          2.8000     1.5270     0.0860 ca         1 A8M      -0.093600
     19 N6           1.6510     2.0480     0.6190 nc         1 A8M      -0.565100
     20 C7           0.7810     1.0780     0.5830 cd         1 A8M       0.428800
     21 C13          0.3510    -2.1610     1.0560 c5         1 A8M       0.078300
     22 O2           1.4970    -2.7670     1.5740 oh         1 A8M      -0.690000
     23 C3          -0.6890    -3.1290     0.4820 c5         1 A8M       0.106300
     24 O3          -0.0670    -4.1590    -0.2410 oh         1 A8M      -0.706000
     25 C8          -0.6180     1.2110     1.0560 c3         1 A8M      -0.118400
     26 HN1         -6.4200     3.5700    -0.5650 hn         1 A8M       0.392500
     27 HN1A        -6.2230     4.2510     0.8820 hn         1 A8M       0.392500
     28 H2          -4.7530     2.5880     1.6160 h1         1 A8M       0.023700
     29 H2A         -6.2330     1.8220     1.0740 h1         1 A8M       0.023700
     30 H4          -5.1780     1.4740    -1.1830 hc         1 A8M       0.057700
     31 H4A         -3.6770     2.1490    -0.5650 hc         1 A8M       0.057700
     32 H5          -3.6920     0.4230     1.2640 h1         1 A8M       0.025200
     33 H5A         -5.0800    -0.3490     0.5110 h1         1 A8M       0.025200
     34 H6          -4.2130    -0.0520    -2.3360 h1         1 A8M       0.034700
     35 H6A         -3.0650    -1.3670    -2.4320 h1         1 A8M       0.034700
     36 H6B         -4.6350    -1.6320    -1.6580 h1         1 A8M       0.034700
     37 H11         -2.3720    -1.2380     1.1870 h1         1 A8M       0.031700
     38 H5'A        -3.3830    -2.4100     0.3580 h1         1 A8M       0.031700
     39 H9          -1.7460    -2.7780    -1.3690 h1         1 A8M       0.090700
     40 H1           1.4410    -1.9220    -0.7820 h2         1 A8M       0.117700
     41 H10          5.4670    -0.5710    -1.4590 h5         1 A8M       0.045100
     42 HN7          5.3350     3.6590     0.0230 hn         1 A8M       0.505500
     43 HN7A         3.7340     3.9340     0.6070 hn         1 A8M       0.505500
     44 H7          -0.1340    -1.5120     1.7950 h1         1 A8M       0.054700
     45 HO2          1.3240    -3.0350     2.4820 ho         1 A8M       0.511000
     46 H3          -1.3530    -3.5280     1.2600 h1         1 A8M       0.051700
     47 HO3          0.6650    -4.4950     0.2910 ho         1 A8M       0.524000
     48 H8          -0.8240     0.5550     1.9030 hc         1 A8M       0.064367
     49 H8A         -0.7780     2.2360     1.3830 hc         1 A8M       0.064367
     50 H8B         -1.3360     0.9740     0.2700 hc         1 A8M       0.064367
@<TRIPOS>BOND
     1     1     2 1   
     2     1    26 1   
     3     1    27 1   
     4     2     3 1   
     5     2    28 1   
     6     2    29 1   
     7     3     4 1   
     8     3    30 1   
     9     3    31 1   
    10     4     5 1   
    11     4    32 1   
    12     4    33 1   
    13     5     6 1   
    14     5     7 1   
    15     6    34 1   
    16     6    35 1   
    17     6    36 1   
    18     7     8 1   
    19     7    37 1   
    20     7    38 1   
    21     8     9 1   
    22     8    23 1   
    23     8    39 1   
    24     9    10 1   
    25    10    11 1   
    26    10    21 1   
    27    10    40 1   
    28    11    12 1   
    29    11    20 1   
    30    12    13 ar  
    31    12    18 ar  
    32    13    14 ar  
    33    14    15 ar  
    34    14    41 1   
    35    15    16 ar  
    36    16    17 1   
    37    16    18 ar  
    38    17    42 1   
    39    17    43 1   
    40    18    19 1   
    41    19    20 2   
    42    20    25 1   
    43    21    22 1   
    44    21    23 1   
    45    21    44 1   
    46    22    45 1   
    47    23    24 1   
    48    23    46 1   
    49    24    47 1   
    50    25    48 1   
    51    25    49 1   
    52    25    50 1   
@<TRIPOS>SUBSTRUCTURE
     1 A8M         1 TEMP              0 ****  ****    0 ROOT
