@<TRIPOS>MOLECULE
A8M
   50    52     1     0     0
SMALL
No Charge or Current Charge


@<TRIPOS>ATOM
      1 N1          -6.2360     3.6640     0.2400 n8         1 A8M      -0.993200
      2 C2          -5.7170     2.4070     0.8100 c3         1 A8M       0.149800
      3 C4          -4.8850     1.6150    -0.2170 c3         1 A8M      -0.081400
      4 C5          -4.3330     0.2960     0.3680 c3         1 A8M       0.167800
      5 N2          -3.3820    -0.4320    -0.5110 n3         1 A8M      -0.706600
      6 C6          -3.9870    -0.8910    -1.7880 c3         1 A8M       0.149100
      7 C15         -2.6730    -1.5200     0.2250 c3         1 A8M       0.156800
      8 C14         -1.4670    -2.1920    -0.5070 c5         1 A8M       0.169300
      9 O4          -0.5100    -1.1770    -0.9330 os         1 A8M      -0.430000
     10 C1           0.7450    -1.3950    -0.2550 c5         1 A8M       0.317300
     11 N5           1.4550    -0.1290    -0.0570 na         1 A8M      -0.286300
     12 C11          2.7890     0.1140    -0.2610 ca         1 A8M       0.139500
     13 N4           3.7750    -0.7030    -0.6850 nb         1 A8M      -0.218000
     14 C10          5.0070    -0.1490    -0.7770 ca         1 A8M       0.179900
     15 N3           5.3420     1.1300    -0.4880 nb         1 A8M      -0.303000
     16 C9           4.3400     1.9190    -0.0710 ca         1 A8M       0.448900
     17 N7           4.6760     3.2040     0.2240 nv         1 A8M      -1.066900
     18 C12          3.0230     1.4280     0.0580 ca         1 A8M      -0.093600
     19 N6           1.8740     2.0850     0.4820 nc         1 A8M      -0.565100
     20 C7           0.9530     1.1110     0.3940 cd         1 A8M       0.428800
     21 C13          0.3760    -2.2040     1.0290 c5         1 A8M       0.078300
     22 O2           1.4770    -2.9220     1.6230 oh         1 A8M      -0.690000
     23 C3          -0.6650    -3.1780     0.4130 c5         1 A8M       0.106300
     24 O3           0.0040    -4.2190    -0.3120 oh         1 A8M      -0.706000
     25 C8          -0.4770     1.3810     0.7760 c3         1 A8M      -0.118400
     26 HN1         -6.8910     3.4420    -0.5190 hn         1 A8M       0.392500
     27 HN1A        -6.8280     4.1290     0.9390 hn         1 A8M       0.392500
     28 H2          -5.0930     2.6500     1.6820 h1         1 A8M       0.023700
     29 H2A         -6.5660     1.7970     1.1480 h1         1 A8M       0.023700
     30 H4          -5.5110     1.4000    -1.0900 hc         1 A8M       0.057700
     31 H4A         -4.0450     2.2330    -0.5570 hc         1 A8M       0.057700
     32 H5          -3.8240     0.5480     1.3090 h1         1 A8M       0.025200
     33 H5A         -5.1770    -0.3570     0.6280 h1         1 A8M       0.025200
     34 H6          -4.4080    -0.0510    -2.3540 h1         1 A8M       0.034700
     35 H6A         -3.2360    -1.3630    -2.4350 h1         1 A8M       0.034700
     36 H6B         -4.7880    -1.6190    -1.6030 h1         1 A8M       0.034700
     37 H11         -2.2980    -1.1230     1.1770 h1         1 A8M       0.031700
     38 H5'A        -3.3900    -2.3110     0.4830 h1         1 A8M       0.031700
     39 H9          -1.8460    -2.7200    -1.3910 h1         1 A8M       0.090700
     40 H1           1.3890    -2.0100    -0.8970 h2         1 A8M       0.117700
     41 H10          5.8100    -0.8000    -1.1180 h5         1 A8M       0.045100
     42 HN7          5.6550     3.4120     0.3970 hn         1 A8M       0.505500
     43 HN7A         3.9920     3.7510     0.7420 hn         1 A8M       0.505500
     44 H7          -0.0990    -1.5520     1.7750 h1         1 A8M       0.054700
     45 HO2          2.0500    -2.2630     2.0840 ho         1 A8M       0.511000
     46 H3          -1.3090    -3.6130     1.1900 h1         1 A8M       0.051700
     47 HO3          0.8230    -4.3860     0.2170 ho         1 A8M       0.524000
     48 H8          -0.8210     0.6780     1.5400 hc         1 A8M       0.064367
     49 H8A         -0.5970     2.3920     1.1820 hc         1 A8M       0.064367
     50 H8B         -1.1350     1.2980    -0.0950 hc         1 A8M       0.064367
@<TRIPOS>BOND
     1     1     2 1   
     2     1    26 1   
     3     1    27 1   
     4     2     3 1   
     5     2    28 1   
     6     2    29 1   
     7     3     4 1   
     8     3    30 1   
     9     3    31 1   
    10     4     5 1   
    11     4    32 1   
    12     4    33 1   
    13     5     6 1   
    14     5     7 1   
    15     6    34 1   
    16     6    35 1   
    17     6    36 1   
    18     7     8 1   
    19     7    37 1   
    20     7    38 1   
    21     8     9 1   
    22     8    23 1   
    23     8    39 1   
    24     9    10 1   
    25    10    11 1   
    26    10    21 1   
    27    10    40 1   
    28    11    12 1   
    29    11    20 1   
    30    12    13 ar  
    31    12    18 ar  
    32    13    14 ar  
    33    14    15 ar  
    34    14    41 1   
    35    15    16 ar  
    36    16    17 1   
    37    16    18 ar  
    38    17    42 1   
    39    17    43 1   
    40    18    19 1   
    41    19    20 2   
    42    20    25 1   
    43    21    22 1   
    44    21    23 1   
    45    21    44 1   
    46    22    45 1   
    47    23    24 1   
    48    23    46 1   
    49    24    47 1   
    50    25    48 1   
    51    25    49 1   
    52    25    50 1   
@<TRIPOS>SUBSTRUCTURE
     1 A8M         1 TEMP              0 ****  ****    0 ROOT
