@<TRIPOS>MOLECULE
A8N
   57    59     1     0     0
SMALL
No Charge or Current Charge


@<TRIPOS>ATOM
      1 C1           7.2980    70.2090    67.5700 ca         1 A8N      -0.014000
      2 C2           6.2490    69.7120    68.3570 ca         1 A8N      -0.112000
      3 C3           5.1170    69.1470    67.7480 ca         1 A8N      -0.060000
      4 C4           5.0220    69.0660    66.3370 ca         1 A8N      -0.137000
      5 C5           6.0780    69.5810    65.5510 ca         1 A8N       0.068700
      6 C6           7.2090    70.1450    66.1700 ca         1 A8N      -0.148000
      7 C7           3.8930    68.5020    65.6950 ca         1 A8N       0.472000
      8 C8           3.8150    68.4910    64.2850 ca         1 A8N      -0.247300
      9 C9           4.9010    69.0050    63.5370 ca         1 A8N       0.073700
     10 N10          6.0240    69.5450    64.1600 na         1 A8N      -0.166700
     11 N11          2.8520    67.9410    66.4360 nu         1 A8N      -0.899200
     12 C13          2.5950    67.8710    63.5630 c6         1 A8N      -0.024100
     13 C14          2.5220    68.1920    62.0540 c6         1 A8N      -0.077400
     14 C15          3.8990    68.0160    61.3890 c6         1 A8N      -0.071400
     15 C16          4.9120    69.0050    62.0040 c6         1 A8N      -0.064100
     16 C17          2.9510    66.6300    67.0950 c3         1 A8N       0.205800
     17 C18          1.6780    66.3520    67.9150 c3         1 A8N      -0.099400
     18 C19          1.7200    64.9950    68.6520 c3         1 A8N      -0.073400
     19 C20          0.4440    64.7160    69.4770 c3         1 A8N      -0.073400
     20 C21          0.4860    63.3590    70.2140 c3         1 A8N      -0.073400
     21 C22         -0.7890    63.0800    71.0390 c3         1 A8N      -0.070400
     22 C23         -0.7470    61.7230    71.7750 c3         1 A8N      -0.106400
     23 C24         -2.0200    61.4560    72.5930 c3         1 A8N       0.098600
     24 N25         -1.9370    60.1240    73.2930 nz         1 A8N      -0.974000
     25 H1           8.1750    70.6470    68.0430 ha         1 A8N       0.150000
     26 H2           6.3120    69.7690    69.4420 ha         1 A8N       0.142000
     27 H3           4.3130    68.7870    68.3860 ha         1 A8N       0.129000
     28 H6           8.0260    70.5400    65.5690 ha         1 A8N       0.145000
     29 H101         6.7900    69.9120    63.6080 hn         1 A8N       0.376000
     30 H11          1.9490    68.1100    65.9970 hn         1 A8N       0.512000
     31 H131         1.6580    68.2070    64.0270 hc         1 A8N       0.055700
     32 H132         2.6270    66.7800    63.6940 hc         1 A8N       0.055700
     33 H141         2.1730    69.2250    61.9110 hc         1 A8N       0.067200
     34 H142         1.7800    67.5430    61.5690 hc         1 A8N       0.067200
     35 H151         4.2510    66.9830    61.5290 hc         1 A8N       0.071700
     36 H152         3.8240    68.1790    60.3050 hc         1 A8N       0.071700
     37 H161         5.9180    68.7680    61.6310 hc         1 A8N       0.084700
     38 H162         4.6870    70.0200    61.6500 hc         1 A8N       0.084700
     39 H171         3.8230    66.5990    67.7630 h1         1 A8N       0.073200
     40 H172         3.0830    65.8370    66.3440 h1         1 A8N       0.073200
     41 H181         0.8060    66.3730    67.2490 hc         1 A8N       0.057200
     42 H182         1.5430    67.1560    68.6500 hc         1 A8N       0.057200
     43 H191         2.5920    64.9730    69.3180 hc         1 A8N       0.048200
     44 H192         1.8580    64.1900    67.9180 hc         1 A8N       0.048200
     45 H201        -0.4280    64.7370    68.8110 hc         1 A8N       0.048200
     46 H202         0.3070    65.5200    70.2110 hc         1 A8N       0.048200
     47 H211         1.3590    63.3370    70.8790 hc         1 A8N       0.049200
     48 H212         0.6240    62.5540    69.4800 hc         1 A8N       0.049200
     49 H221        -1.6620    63.1020    70.3730 hc         1 A8N       0.056700
     50 H222        -0.9270    63.8840    71.7730 hc         1 A8N       0.056700
     51 H231         0.1230    61.7010    72.4430 hc         1 A8N       0.066700
     52 H232        -0.6120    60.9180    71.0420 hc         1 A8N       0.066700
     53 H241        -2.8900    61.4630    71.9260 hx         1 A8N       0.108200
     54 H242        -2.1500    62.2510    73.3360 hx         1 A8N       0.108200
     55 H251        -1.8300    59.3280    72.6460 hn         1 A8N       0.515333
     56 H252        -2.7760    59.9090    73.8540 hn         1 A8N       0.515333
     57 H253        -1.1450    60.0570    73.9510 hn         1 A8N       0.515333
@<TRIPOS>BOND
     1     1     2 ar  
     2     1     6 ar  
     3     1    25 1   
     4     2     3 ar  
     5     2    26 1   
     6     3     4 ar  
     7     3    27 1   
     8     4     5 ar  
     9     4     7 ar  
    10     5     6 ar  
    11     5    10 2   
    12     6    28 1   
    13     7     8 ar  
    14     7    11 1   
    15     8     9 ar  
    16     8    12 1   
    17     9    10 1   
    18     9    15 1   
    19    10    29 1   
    20    11    16 1   
    21    11    30 1   
    22    12    13 1   
    23    12    31 1   
    24    12    32 1   
    25    13    14 1   
    26    13    33 1   
    27    13    34 1   
    28    14    15 1   
    29    14    35 1   
    30    14    36 1   
    31    15    37 1   
    32    15    38 1   
    33    16    17 1   
    34    16    39 1   
    35    16    40 1   
    36    17    18 1   
    37    17    41 1   
    38    17    42 1   
    39    18    19 1   
    40    18    43 1   
    41    18    44 1   
    42    19    20 1   
    43    19    45 1   
    44    19    46 1   
    45    20    21 1   
    46    20    47 1   
    47    20    48 1   
    48    21    22 1   
    49    21    49 1   
    50    21    50 1   
    51    22    23 1   
    52    22    51 1   
    53    22    52 1   
    54    23    24 1   
    55    23    53 1   
    56    23    54 1   
    57    24    55 1   
    58    24    56 1   
    59    24    57 1   
@<TRIPOS>SUBSTRUCTURE
     1 A8N         1 TEMP              0 ****  ****    0 ROOT
