@<TRIPOS>MOLECULE
A8N
   57    59     1     0     0
SMALL
abcg2


@<TRIPOS>ATOM
      1 C1           6.5990    69.0550    68.1060 ca         1 A8N      -0.014000
      2 C2           5.5550    68.2140    68.5130 ca         1 A8N      -0.112000
      3 C3           4.6210    67.7830    67.6060 ca         1 A8N      -0.060000
      4 C4           4.6830    68.1660    66.2490 ca         1 A8N      -0.137000
      5 C5           5.6870    69.0850    65.8900 ca         1 A8N       0.068700
      6 C6           6.6600    69.4990    66.8110 ca         1 A8N      -0.148000
      7 C7           3.7660    67.7330    65.2180 ca         1 A8N       0.472000
      8 C8           3.7440    68.4500    63.9900 ca         1 A8N      -0.247300
      9 C9           4.7500    69.3490    63.7210 ca         1 A8N       0.073700
     10 N10          5.7010    69.5980    64.6310 na         1 A8N      -0.166700
     11 N11          2.9370    66.7030    65.3480 nu         1 A8N      -0.899200
     12 C13          2.6940    68.1390    62.9550 c6         1 A8N      -0.024100
     13 C14          2.6600    69.1410    61.8080 c6         1 A8N      -0.077400
     14 C15          4.0640    69.4400    61.3120 c6         1 A8N      -0.071400
     15 C16          4.8740    70.0860    62.4240 c6         1 A8N      -0.064100
     16 C17          2.9260    65.5960    66.2900 c3         1 A8N       0.205800
     17 C18          1.7870    65.6740    67.2990 c3         1 A8N      -0.099400
     18 C19          1.8100    64.4990    68.2670 c3         1 A8N      -0.073400
     19 C20          0.6490    64.5300    69.2520 c3         1 A8N      -0.073400
     20 C21          0.6590    63.3580    70.2260 c3         1 A8N      -0.073400
     21 C22         -0.5090    63.3970    71.2030 c3         1 A8N      -0.070400
     22 C23         -0.5000    62.2230    72.1750 c3         1 A8N      -0.106400
     23 C24         -1.6750    62.3000    73.1290 c3         1 A8N       0.098600
     24 N25         -1.6710    61.1570    74.0800 nz         1 A8N      -0.974000
     25 H1           7.3440    69.3790    68.8200 ha         1 A8N       0.150000
     26 H2           5.4760    67.9100    69.5470 ha         1 A8N       0.142000
     27 H3           3.8070    67.1790    67.9700 ha         1 A8N       0.129000
     28 H6           7.4380    70.1810    66.4930 ha         1 A8N       0.145000
     29 H101         6.4460    70.2370    64.3870 hn         1 A8N       0.376000
     30 H11          2.3060    66.5590    64.5740 hn         1 A8N       0.512000
     31 H131         1.7060    68.1160    63.4270 hc         1 A8N       0.055700
     32 H132         2.8690    67.1340    62.5530 hc         1 A8N       0.055700
     33 H141         2.1850    70.0680    62.1410 hc         1 A8N       0.067200
     34 H142         2.0420    68.7410    61.0040 hc         1 A8N       0.067200
     35 H151         4.5520    68.5170    60.9860 hc         1 A8N       0.071700
     36 H152         4.0390    70.1090    60.4520 hc         1 A8N       0.071700
     37 H161         5.9290    70.1560    62.1520 hc         1 A8N       0.084700
     38 H162         4.5300    71.1120    62.5920 hc         1 A8N       0.084700
     39 H171         3.8970    65.5130    66.7760 h1         1 A8N       0.073200
     40 H172         2.8130    64.6910    65.6910 h1         1 A8N       0.073200
     41 H181         0.8370    65.6880    66.7570 hc         1 A8N       0.057200
     42 H182         1.8310    66.6140    67.8560 hc         1 A8N       0.057200
     43 H191         2.7570    64.4980    68.8190 hc         1 A8N       0.048200
     44 H192         1.7860    63.5600    67.7040 hc         1 A8N       0.048200
     45 H201        -0.2950    64.5340    68.6980 hc         1 A8N       0.048200
     46 H202         0.6750    65.4690    69.8150 hc         1 A8N       0.048200
     47 H211         1.6010    63.3550    70.7840 hc         1 A8N       0.049200
     48 H212         0.6330    62.4190    69.6640 hc         1 A8N       0.049200
     49 H221        -1.4500    63.4000    70.6440 hc         1 A8N       0.056700
     50 H222        -0.4820    64.3350    71.7660 hc         1 A8N       0.056700
     51 H231         0.4350    62.2210    72.7430 hc         1 A8N       0.066700
     52 H232        -0.5380    61.2820    71.6180 hc         1 A8N       0.066700
     53 H241        -2.6260    62.2650    72.6020 hx         1 A8N       0.108200
     54 H242        -1.6460    63.2060    73.7300 hx         1 A8N       0.108200
     55 H251        -1.7280    60.2600    73.5980 hn         1 A8N       0.515333
     56 H252        -2.4610    61.1990    74.7230 hn         1 A8N       0.515333
     57 H253        -0.8250    61.1400    74.6490 hn         1 A8N       0.515333
@<TRIPOS>BOND
     1     1     2 ar  
     2     1     6 ar  
     3     1    25 1   
     4     2     3 ar  
     5     2    26 1   
     6     3     4 ar  
     7     3    27 1   
     8     4     5 ar  
     9     4     7 ar  
    10     5     6 ar  
    11     5    10 2   
    12     6    28 1   
    13     7     8 ar  
    14     7    11 1   
    15     8     9 ar  
    16     8    12 1   
    17     9    10 1   
    18     9    15 1   
    19    10    29 1   
    20    11    16 1   
    21    11    30 1   
    22    12    13 1   
    23    12    31 1   
    24    12    32 1   
    25    13    14 1   
    26    13    33 1   
    27    13    34 1   
    28    14    15 1   
    29    14    35 1   
    30    14    36 1   
    31    15    37 1   
    32    15    38 1   
    33    16    17 1   
    34    16    39 1   
    35    16    40 1   
    36    17    18 1   
    37    17    41 1   
    38    17    42 1   
    39    18    19 1   
    40    18    43 1   
    41    18    44 1   
    42    19    20 1   
    43    19    45 1   
    44    19    46 1   
    45    20    21 1   
    46    20    47 1   
    47    20    48 1   
    48    21    22 1   
    49    21    49 1   
    50    21    50 1   
    51    22    23 1   
    52    22    51 1   
    53    22    52 1   
    54    23    24 1   
    55    23    53 1   
    56    23    54 1   
    57    24    55 1   
    58    24    56 1   
    59    24    57 1   
@<TRIPOS>SUBSTRUCTURE
     1 A8N         1 TEMP              0 ****  ****    0 ROOT
