@<TRIPOS>MOLECULE
A8O
   48    50     1     0     0
SMALL
bcc


@<TRIPOS>ATOM
      1 C13         -2.7540     0.8660    -0.1780 c3         1 A8O       0.071800
      2 C12         -1.5990    -0.0290    -0.5960 c          1 A8O       0.608700
      3 C17         -5.6190    -1.4520     0.4770 c6         1 A8O      -0.093400
      4 C16         -4.2910    -0.7460     0.7030 c6         1 A8O       0.169800
      5 C11          1.4260     1.7130     0.5420 cc         1 A8O      -0.105600
      6 C10          0.0760     1.6850     0.3760 cd         1 A8O      -0.154000
      7 C8           0.9080    -0.2670    -0.4250 cc         1 A8O      -0.006600
      8 C22          2.3060     2.7760     1.0960 c3         1 A8O      -0.024800
      9 C5           5.3270    -0.2520    -1.1440 ca         1 A8O      -0.085000
     10 C4           3.9860     0.0900    -1.1460 ca         1 A8O      -0.125000
     11 C19         -6.4620     0.6150    -0.6000 c6         1 A8O      -0.093400
     12 C20         -5.1050     1.2510    -0.3410 c6         1 A8O       0.169800
     13 C9          -0.2690     0.4390    -0.2340 cd         1 A8O      -0.258600
     14 C24          7.3540    -0.8510     0.0740 cg         1 A8O       0.226800
     15 O14         -1.7860    -1.0630    -1.2120 o          1 A8O      -0.526100
     16 N15         -4.0480     0.2540    -0.3250 n3         1 A8O      -0.699600
     17 C18         -6.7590    -0.4450     0.4450 c6         1 A8O       0.147100
     18 O21         -8.0050    -1.0370     0.1430 oh         1 A8O      -0.594800
     19 N7           1.9200     0.5150     0.0510 na         1 A8O      -0.002200
     20 C3           3.2910     0.1670     0.0540 ca         1 A8O       0.009800
     21 C2           3.9300    -0.0890     1.2610 ca         1 A8O      -0.125000
     22 C1           5.2730    -0.4200     1.2720 ca         1 A8O      -0.085000
     23 C6           5.9690    -0.5030     0.0670 ca         1 A8O      -0.009000
     24 N25          8.4710    -1.1310     0.0800 n1         1 A8O      -0.347800
     25 H1          -2.5740     1.2360     0.8460 h1         1 A8O       0.049200
     26 H2          -2.7020     1.7530    -0.8210 h1         1 A8O       0.049200
     27 H3          -5.5880    -2.0030    -0.4690 hc         1 A8O       0.058200
     28 H4          -5.7740    -2.1830     1.2760 hc         1 A8O       0.058200
     29 H5          -4.2880    -0.2870     1.7080 h1         1 A8O       0.031450
     30 H6          -3.4870    -1.4800     0.6930 h1         1 A8O       0.031450
     31 H7          -0.5950     2.4850     0.6460 ha         1 A8O       0.152000
     32 H8           2.7440     2.5000     2.0570 hc         1 A8O       0.048033
     33 H9           3.1280     3.0240     0.4230 hc         1 A8O       0.048033
     34 H10          1.7200     3.6800     1.2520 hc         1 A8O       0.048033
     35 H11          5.8720    -0.3160    -2.0750 ha         1 A8O       0.152000
     36 H12          3.4820     0.3000    -2.0800 ha         1 A8O       0.155000
     37 H13         -7.2310     1.3910    -0.5890 hc         1 A8O       0.058200
     38 H14         -6.4650     0.1600    -1.5950 hc         1 A8O       0.058200
     39 H15         -4.8900     1.9780    -1.1280 h1         1 A8O       0.031450
     40 H16         -5.1430     1.8180     0.6070 h1         1 A8O       0.031450
     41 H17          1.0350    -1.6250    -2.0750 hc         1 A8O       0.059700
     42 H18          2.1330    -1.9980    -0.7520 hc         1 A8O       0.059700
     43 H19          0.4120    -2.3300    -0.5970 hc         1 A8O       0.059700
     44 H21         -6.7970     0.0510     1.4280 h1         1 A8O       0.020700
     45 H22         -8.1910    -1.7020     0.8130 ho         1 A8O       0.401000
     46 H23          3.3770    -0.0390     2.1890 ha         1 A8O       0.155000
     47 H24          5.7740    -0.6220     2.2080 ha         1 A8O       0.152000
     48 C23          1.1390    -1.6230    -0.9890 c3         1 A8O      -0.037800
@<TRIPOS>BOND
     1     1     2 1   
     2     1    16 1   
     3     1    25 1   
     4     1    26 1   
     5     2    13 1   
     6     2    15 2   
     7     3     4 1   
     8     3    17 1   
     9     3    27 1   
    10     3    28 1   
    11     4    16 1   
    12     4    29 1   
    13     4    30 1   
    14     5     6 2   
    15     5     8 1   
    16     5    19 1   
    17     6    13 1   
    18     6    31 1   
    19     7    13 2   
    20     7    19 1   
    21     7    48 1   
    22     8    32 1   
    23     8    33 1   
    24     8    34 1   
    25     9    10 ar  
    26     9    23 ar  
    27     9    35 1   
    28    10    20 ar  
    29    10    36 1   
    30    11    12 1   
    31    11    17 1   
    32    11    37 1   
    33    11    38 1   
    34    12    16 1   
    35    12    39 1   
    36    12    40 1   
    37    14    23 1   
    38    14    24 3   
    39    17    18 1   
    40    17    44 1   
    41    18    45 1   
    42    19    20 1   
    43    20    21 ar  
    44    21    22 ar  
    45    21    46 1   
    46    22    23 ar  
    47    22    47 1   
    48    41    48 1   
    49    42    48 1   
    50    43    48 1   
@<TRIPOS>SUBSTRUCTURE
     1 A8O         1 TEMP              0 ****  ****    0 ROOT
