@<TRIPOS>MOLECULE
A8O
   48    50     1     0     0
SMALL
No Charge or Current Charge


@<TRIPOS>ATOM
      1 C13         -2.7400     0.7510    -0.2450 c3         1 A8O       0.071800
      2 C12         -1.5340    -0.1940    -0.5560 c          1 A8O       0.608700
      3 C17         -5.8520    -1.4470     0.4010 c6         1 A8O      -0.093400
      4 C16         -4.4460    -0.8460     0.6280 c6         1 A8O       0.169800
      5 C11          1.4930     1.6810     0.5800 cc         1 A8O      -0.156300
      6 C10          0.1430     1.5710     0.3940 cd         1 A8O      -0.136000
      7 C8           1.0090    -0.3910    -0.3690 cc         1 A8O      -0.057300
      8 C22          2.2970     2.8250     1.1390 c3         1 A8O      -0.024800
      9 C5           5.4240    -0.1660    -1.1820 ca         1 A8O      -0.067000
     10 C4           4.0480     0.1240    -1.1520 ca         1 A8O      -0.107000
     11 C19         -6.5830     0.7690    -0.5700 c6         1 A8O      -0.093400
     12 C20         -5.1570     1.3120    -0.3170 c6         1 A8O       0.169800
     13 C9          -0.1700     0.3080    -0.1880 cd         1 A8O      -0.258600
     14 C24          7.5310    -0.6930    -0.0130 cg         1 A8O       0.316000
     15 O14         -1.6970    -1.2900    -1.0850 o          1 A8O      -0.526100
     16 N15         -4.1420     0.2240    -0.3660 n3         1 A8O      -0.699600
     17 C18         -6.9310    -0.3430     0.4430 c6         1 A8O       0.170300
     18 O21         -8.2190    -0.8920     0.1460 oh         1 A8O      -0.657000
     19 N7           1.9980     0.4750     0.1070 na         1 A8O       0.099200
     20 C3           3.3630     0.1840     0.0770 ca         1 A8O       0.009800
     21 C2           4.0640    -0.0460     1.2760 ca         1 A8O      -0.107000
     22 C1           5.4400    -0.3360     1.2470 ca         1 A8O      -0.067000
     23 C6           6.1240    -0.3970     0.0170 ca         1 A8O      -0.009000
     24 N25          8.6740    -0.9320    -0.0280 n1         1 A8O      -0.437000
     25 H1          -2.5860     1.1310     0.7730 h1         1 A8O       0.049200
     26 H2          -2.6130     1.6100    -0.9180 h1         1 A8O       0.049200
     27 H3          -5.8750    -1.9620    -0.5690 hc         1 A8O       0.058200
     28 H4          -6.0550    -2.2060     1.1690 hc         1 A8O       0.058200
     29 H5          -4.3900    -0.4400     1.6500 h1         1 A8O       0.031450
     30 H6          -3.7080    -1.6580     0.5640 h1         1 A8O       0.031450
     31 H7          -0.5730     2.3470     0.6500 ha         1 A8O       0.134000
     32 H8           2.7030     2.5740     2.1260 hc         1 A8O       0.048033
     33 H9           3.1370     3.0760     0.4790 hc         1 A8O       0.048033
     34 H10          1.6790     3.7240     1.2490 hc         1 A8O       0.048033
     35 H11          5.9430    -0.2090    -2.1380 ha         1 A8O       0.134000
     36 H12          3.5140     0.3050    -2.0820 ha         1 A8O       0.137000
     37 H13         -7.3090     1.5890    -0.4940 hc         1 A8O       0.058200
     38 H14         -6.6490     0.3800    -1.5950 hc         1 A8O       0.058200
     39 H15         -4.9330     2.0750    -1.0770 h1         1 A8O       0.031450
     40 H16         -5.1310     1.8130     0.6620 h1         1 A8O       0.031450
     41 H17          1.0360    -1.8060    -1.9990 hc         1 A8O       0.059700
     42 H18          2.2910    -2.1030    -0.7870 hc         1 A8O       0.059700
     43 H19          0.6160    -2.5150    -0.4280 hc         1 A8O       0.059700
     44 H21         -6.9410     0.0980     1.4510 h1         1 A8O       0.020700
     45 H22         -8.4260    -1.5290     0.8650 ho         1 A8O       0.440000
     46 H23          3.5420    -0.0030     2.2290 ha         1 A8O       0.137000
     47 H24          5.9720    -0.5130     2.1800 ha         1 A8O       0.134000
     48 C23          1.2540    -1.7760    -0.9260 c3         1 A8O      -0.037800
@<TRIPOS>BOND
     1     1     2 1   
     2     1    16 1   
     3     1    25 1   
     4     1    26 1   
     5     2    13 1   
     6     2    15 2   
     7     3     4 1   
     8     3    17 1   
     9     3    27 1   
    10     3    28 1   
    11     4    16 1   
    12     4    29 1   
    13     4    30 1   
    14     5     6 2   
    15     5     8 1   
    16     5    19 1   
    17     6    13 1   
    18     6    31 1   
    19     7    13 2   
    20     7    19 1   
    21     7    48 1   
    22     8    32 1   
    23     8    33 1   
    24     8    34 1   
    25     9    10 ar  
    26     9    23 ar  
    27     9    35 1   
    28    10    20 ar  
    29    10    36 1   
    30    11    12 1   
    31    11    17 1   
    32    11    37 1   
    33    11    38 1   
    34    12    16 1   
    35    12    39 1   
    36    12    40 1   
    37    14    23 1   
    38    14    24 3   
    39    17    18 1   
    40    17    44 1   
    41    18    45 1   
    42    19    20 1   
    43    20    21 ar  
    44    21    22 ar  
    45    21    46 1   
    46    22    23 ar  
    47    22    47 1   
    48    41    48 1   
    49    42    48 1   
    50    43    48 1   
@<TRIPOS>SUBSTRUCTURE
     1 A8O         1 TEMP              0 ****  ****    0 ROOT
