@<TRIPOS>MOLECULE
A8P
   84    87     1     0     0
SMALL
abcg2


@<TRIPOS>ATOM
      1 C1           9.8740     7.5140    -1.6360 c3         1 A8P      -0.088100
      2 C2           9.6240     6.3450    -0.6930 c3         1 A8P      -0.075400
      3 C3           8.5620     5.3840    -1.2120 c3         1 A8P      -0.076400
      4 C4           8.2820     4.2220    -0.2670 c3         1 A8P      -0.074400
      5 C5           7.2140     3.2700    -0.7890 c3         1 A8P      -0.075400
      6 C6           6.8820     2.1450     0.1830 c3         1 A8P      -0.071400
      7 C7           5.8160     1.2000    -0.3540 c3         1 A8P      -0.092400
      8 C8           5.4140     0.1480     0.6660 c3         1 A8P       0.231800
      9 N9           4.4130    -0.7400     0.1060 nu         1 A8P      -0.885400
     10 C10          3.6430    -1.5020     0.9100 cc         1 A8P       0.663700
     11 N11          3.6420    -1.4440     2.2150 nd         1 A8P      -0.648100
     12 C12          2.6470    -2.3110     2.5950 ca         1 A8P      -0.061600
     13 C13          2.1460    -2.6770     3.8500 ca         1 A8P       0.409900
     14 N14          1.1430    -3.5610     3.9010 nb         1 A8P      -0.288000
     15 C15          0.6660    -4.0580     2.7670 ca         1 A8P       0.170900
     16 N16          1.0620    -3.7900     1.5310 nb         1 A8P      -0.194000
     17 C17          2.0540    -2.9110     1.4990 ca         1 A8P       0.147500
     18 N18          2.7160    -2.3990     0.4020 na         1 A8P      -0.311300
     19 C19          2.3520    -2.5720    -0.9770 c5         1 A8P       0.328300
     20 C20          2.1790    -4.0250    -1.4220 c5         1 A8P       0.069300
     21 C21          1.2390    -3.8450    -2.6170 c5         1 A8P       0.109300
     22 C22          0.3370    -2.7170    -2.1310 c5         1 A8P       0.131300
     23 O23          1.1320    -1.9360    -1.2330 os         1 A8P      -0.412000
     24 C24         -0.9060    -3.2260    -1.4240 c3         1 A8P       0.223600
     25 O25         -1.6590    -2.1600    -0.8800 os         1 A8P      -0.566400
     26 P26         -2.8670    -1.5080    -1.7770 p5         1 A8P       1.449800
     27 O27         -2.3710    -1.1830    -3.1500 o          1 A8P      -0.837500
     28 O28         -4.1280    -2.2840    -1.5800 o          1 A8P      -0.837500
     29 O29         -2.9520    -0.0840    -0.9450 os         1 A8P      -0.683800
     30 P30         -4.0690     0.3020     0.1670 p5         1 A8P       1.488800
     31 O31         -5.3570     0.7340    -0.5140 o          1 A8P      -0.795000
     32 O32         -4.1330    -0.6760     1.2850 o          1 A8P      -0.795000
     33 O33         -3.2960     1.6790     0.6320 os         1 A8P      -0.562400
     34 C34         -4.0330     2.6890     1.2890 c3         1 A8P       0.217600
     35 C35         -4.4260     3.7980     0.3220 c5         1 A8P       0.076300
     36 C36         -5.1420     4.9530     1.0040 c5         1 A8P       0.158300
     37 C37         -6.5930     4.4710     1.0390 c5         1 A8P       0.112300
     38 C38         -6.7720     3.8340    -0.3430 c5         1 A8P       0.070600
     39 N39         -5.4200     3.3140    -0.7020 ny         1 A8P      -0.887000
     40 O40         -7.4500     5.5450     1.2840 oh         1 A8P      -0.659000
     41 O41         -4.9990     6.0810     0.1810 oh         1 A8P      -0.664000
     42 O42          1.9450    -3.4020    -3.7490 oh         1 A8P      -0.706000
     43 O43          3.4290    -4.5700    -1.7380 oh         1 A8P      -0.724000
     44 N44          2.6550    -2.1970     5.0010 nv         1 A8P      -1.063900
     45 H1          10.6260     8.1970    -1.2380 hc         1 A8P       0.029700
     46 H1A         10.2240     7.1690    -2.6110 hc         1 A8P       0.029700
     47 H2          10.5580     5.7970    -0.5280 hc         1 A8P       0.035200
     48 H3           7.6320     5.9360    -1.3900 hc         1 A8P       0.038200
     49 H3A          8.8730     4.9940    -2.1880 hc         1 A8P       0.038200
     50 H4           9.2090     3.6670    -0.0860 hc         1 A8P       0.035200
     51 H4A          7.9710     4.6170     0.7070 hc         1 A8P       0.035200
     52 H5           6.3020     3.8350    -1.0090 hc         1 A8P       0.039700
     53 H5A          7.5430     2.8440    -1.7430 hc         1 A8P       0.039700
     54 H6           7.7910     1.5800     0.4150 hc         1 A8P       0.037200
     55 H6A          6.5420     2.5770     1.1310 hc         1 A8P       0.037200
     56 H7           4.9290     1.7700    -0.6460 hc         1 A8P       0.048700
     57 H7A          6.1870     0.7120    -1.2620 hc         1 A8P       0.048700
     58 H81          6.2950    -0.4090     1.0050 h1         1 A8P       0.046700
     59 H15         -0.1490    -4.7670     2.8640 h5         1 A8P       0.048100
     60 H19          3.1510    -2.1290    -1.5820 h2         1 A8P       0.059700
     61 H20          1.6680    -4.6020    -0.6470 h1         1 A8P       0.093700
     62 H21          0.6710    -4.7610    -2.8310 h1         1 A8P       0.053700
     63 H22          0.0320    -2.0840    -2.9670 h1         1 A8P       0.131700
     64 H24         -1.4870    -3.8290    -2.1310 h1         1 A8P       0.028700
     65 H24A        -0.6300    -3.8790    -0.5930 h1         1 A8P       0.028700
     66 H34         -4.9080     2.2910     1.8150 h1         1 A8P       0.042200
     67 H34A        -3.3880     3.1330     2.0500 h1         1 A8P       0.042200
     68 H35         -3.5330     4.1390    -0.2030 hx         1 A8P       0.119700
     69 H36         -4.7480     5.1290     2.0120 h1         1 A8P       0.075700
     70 H37         -6.6890     3.7000     1.8140 h1         1 A8P       0.071700
     71 H38         -7.4870     3.0160    -0.3560 hx         1 A8P       0.089200
     72 H38A        -7.0700     4.5810    -1.0750 hx         1 A8P       0.089200
     73 H39A        -5.1520     3.6360    -1.6290 hn         1 A8P       0.533500
     74 HO40        -8.3450     5.2140     1.4060 ho         1 A8P       0.463000
     75 HO41        -5.6100     6.7620     0.4850 ho         1 A8P       0.468000
     76 HO42         2.7200    -3.9670    -3.8500 ho         1 A8P       0.498000
     77 HO43         3.3710    -5.5280    -1.6820 ho         1 A8P       0.506000
     78 HN44         3.2450    -1.3830     4.9710 hn         1 A8P       0.483500
     79 HN4A         2.1290    -2.3350     5.8480 hn         1 A8P       0.483500
     80 H9           4.6150    -1.0860    -0.8180 hn         1 A8P       0.484000
     81 H82          4.9880     0.6300     1.5460 h1         1 A8P       0.046700
     82 H1B          8.9600     8.0870    -1.8000 hc         1 A8P       0.029700
     83 H2A          9.3200     6.7250     0.2870 hc         1 A8P       0.035200
     84 H39B        -5.4250     2.2340    -0.7350 hn         1 A8P       0.533500
@<TRIPOS>BOND
     1     1     2 1   
     2     1    45 1   
     3     1    46 1   
     4     1    82 1   
     5     2     3 1   
     6     2    47 1   
     7     2    83 1   
     8     3     4 1   
     9     3    48 1   
    10     3    49 1   
    11     4     5 1   
    12     4    50 1   
    13     4    51 1   
    14     5     6 1   
    15     5    52 1   
    16     5    53 1   
    17     6     7 1   
    18     6    54 1   
    19     6    55 1   
    20     7     8 1   
    21     7    56 1   
    22     7    57 1   
    23     8     9 1   
    24     8    58 1   
    25     8    81 1   
    26     9    10 1   
    27     9    80 1   
    28    10    11 2   
    29    10    18 1   
    30    11    12 1   
    31    12    13 ar  
    32    12    17 ar  
    33    13    14 ar  
    34    13    44 1   
    35    14    15 ar  
    36    15    16 ar  
    37    15    59 1   
    38    16    17 ar  
    39    17    18 1   
    40    18    19 1   
    41    19    20 1   
    42    19    23 1   
    43    19    60 1   
    44    20    21 1   
    45    20    43 1   
    46    20    61 1   
    47    21    22 1   
    48    21    42 1   
    49    21    62 1   
    50    22    23 1   
    51    22    24 1   
    52    22    63 1   
    53    24    25 1   
    54    24    64 1   
    55    24    65 1   
    56    25    26 1   
    57    26    27 1   
    58    26    28 1   
    59    26    29 1   
    60    29    30 1   
    61    30    31 1   
    62    30    32 1   
    63    30    33 1   
    64    33    34 1   
    65    34    35 1   
    66    34    66 1   
    67    34    67 1   
    68    35    36 1   
    69    35    39 1   
    70    35    68 1   
    71    36    37 1   
    72    36    41 1   
    73    36    69 1   
    74    37    38 1   
    75    37    40 1   
    76    37    70 1   
    77    38    39 1   
    78    38    71 1   
    79    38    72 1   
    80    39    73 1   
    81    39    84 1   
    82    40    74 1   
    83    41    75 1   
    84    42    76 1   
    85    43    77 1   
    86    44    78 1   
    87    44    79 1   
@<TRIPOS>SUBSTRUCTURE
     1 A8P         1 TEMP              0 ****  ****    0 ROOT
