@<TRIPOS>MOLECULE
A8P
   84    87     1     0     0
SMALL
No Charge or Current Charge


@<TRIPOS>ATOM
      1 C1          12.3230     5.6220    -2.0200 c3         1 A8P      -0.088100
      2 C2          11.6680     4.6790    -0.9920 c3         1 A8P      -0.075400
      3 C3          10.1880     4.3740    -1.3080 c3         1 A8P      -0.076400
      4 C4           9.5320     3.4290    -0.2780 c3         1 A8P      -0.074400
      5 C5           8.0510     3.1230    -0.5940 c3         1 A8P      -0.075400
      6 C6           7.3960     2.1770     0.4360 c3         1 A8P      -0.071400
      7 C7           5.9160     1.8710     0.1200 c3         1 A8P      -0.092400
      8 C8           5.2650     0.9270     1.1490 c3         1 A8P       0.231800
      9 N9           3.8660     0.6820     0.7970 nu         1 A8P      -0.885400
     10 C10          3.0250    -0.1660     1.4440 cc         1 A8P       0.663700
     11 N11          3.3580    -0.8100     2.5630 nd         1 A8P      -0.648100
     12 C12          2.2120    -1.5740     2.8200 ca         1 A8P      -0.061600
     13 C13          1.9570    -2.4770     3.8760 ca         1 A8P       0.409900
     14 N14          0.7870    -3.1290     3.9650 nb         1 A8P      -0.288000
     15 C15         -0.1140    -2.8710     2.9860 ca         1 A8P       0.170900
     16 N16          0.0460    -2.0260     1.9400 nb         1 A8P      -0.194000
     17 C17          1.2270    -1.3780     1.8770 ca         1 A8P       0.147500
     18 N18          1.7460    -0.4640     0.9950 na         1 A8P      -0.311300
     19 C19          1.1140     0.1640    -0.1670 c5         1 A8P       0.328300
     20 C20          1.7440    -0.2070    -1.5540 c5         1 A8P       0.069300
     21 C21          0.5170    -0.0270    -2.4890 c5         1 A8P       0.109300
     22 C22         -0.6010    -0.6480    -1.5910 c5         1 A8P       0.131300
     23 O23         -0.2990    -0.1430    -0.2610 os         1 A8P      -0.412000
     24 C24         -0.6030    -2.2170    -1.5910 c3         1 A8P       0.223600
     25 O25         -1.7670    -2.7810    -0.9500 os         1 A8P      -0.566400
     26 P26         -3.2720    -2.4500    -1.4240 p5         1 A8P       1.449800
     27 O27         -3.2960    -2.1330    -2.8820 o          1 A8P      -0.837500
     28 O28         -4.2090    -3.5730    -1.1320 o          1 A8P      -0.837500
     29 O29         -3.5220    -1.1400    -0.5890 os         1 A8P      -0.683800
     30 P30         -4.1690    -1.3770     0.8240 p5         1 A8P       1.488800
     31 O31         -5.6540    -1.5250     0.7470 o          1 A8P      -0.795000
     32 O32         -3.5110    -2.4340     1.6440 o          1 A8P      -0.795000
     33 O33         -3.7970     0.0680     1.4410 os         1 A8P      -0.562400
     34 C34         -4.5280     1.2940     1.2240 c3         1 A8P       0.217600
     35 C35         -4.9820     1.4720    -0.2630 c5         1 A8P       0.076300
     36 C36         -5.4110     2.9170    -0.6550 c5         1 A8P       0.158300
     37 C37         -6.8110     3.0720     0.0420 c5         1 A8P       0.112300
     38 C38         -7.4410     1.6350     0.0140 c5         1 A8P       0.070600
     39 N39         -6.3140     0.7480    -0.5520 ny         1 A8P      -0.887000
     40 O40         -7.6150     4.0340    -0.6600 oh         1 A8P      -0.659000
     41 O41         -5.5560     3.0470    -2.0730 oh         1 A8P      -0.664000
     42 O42          0.3000     1.3610    -2.7730 oh         1 A8P      -0.706000
     43 O43          2.8480     0.6440    -1.9380 oh         1 A8P      -0.724000
     44 N44          2.8650    -2.7370     4.8590 nv         1 A8P      -1.063900
     45 H1          13.3700     5.8090    -1.7550 hc         1 A8P       0.029700
     46 H1A         12.2970     5.1790    -3.0240 hc         1 A8P       0.029700
     47 H2          12.2340     3.7400    -0.9590 hc         1 A8P       0.035200
     48 H3           9.6250     5.3150    -1.3430 hc         1 A8P       0.038200
     49 H3A         10.1180     3.9220    -2.3060 hc         1 A8P       0.038200
     50 H4          10.0950     2.4870    -0.2440 hc         1 A8P       0.035200
     51 H4A          9.6010     3.8800     0.7200 hc         1 A8P       0.035200
     52 H5           7.4890     4.0640    -0.6280 hc         1 A8P       0.039700
     53 H5A          7.9820     2.6720    -1.5920 hc         1 A8P       0.039700
     54 H6           7.9590     1.2360     0.4700 hc         1 A8P       0.037200
     55 H6A          7.4660     2.6280     1.4340 hc         1 A8P       0.037200
     56 H7           5.3520     2.8120     0.0890 hc         1 A8P       0.048700
     57 H7A          5.8470     1.4190    -0.8770 hc         1 A8P       0.048700
     58 H81          5.8200    -0.0220     1.1730 h1         1 A8P       0.046700
     59 H15         -1.0650    -3.3960     3.0460 h5         1 A8P       0.048100
     60 H19          1.2130     1.2450    -0.0040 h2         1 A8P       0.059700
     61 H20          2.0650    -1.2600    -1.5390 h1         1 A8P       0.093700
     62 H21          0.6390    -0.5910    -3.4250 h1         1 A8P       0.053700
     63 H22         -1.5790    -0.2740    -1.9140 h1         1 A8P       0.131700
     64 H24         -0.5540    -2.5630    -2.6310 h1         1 A8P       0.028700
     65 H24A         0.3020    -2.5810    -1.0900 h1         1 A8P       0.028700
     66 H34         -5.4000     1.3400     1.8880 h1         1 A8P       0.042200
     67 H34A        -3.8800     2.1410     1.4840 h1         1 A8P       0.042200
     68 H35         -4.1810     1.0930    -0.9060 hx         1 A8P       0.119700
     69 H36         -4.6960     3.6620    -0.2780 h1         1 A8P       0.075700
     70 H37         -6.6660     3.3870     1.0850 h1         1 A8P       0.071700
     71 H38         -7.7070     1.2820     1.0150 hx         1 A8P       0.089200
     72 H38A        -8.3230     1.5540    -0.6280 hx         1 A8P       0.089200
     73 H39A        -6.4300     0.6000    -1.5770 hn         1 A8P       0.533500
     74 HO40        -8.4130     4.2070    -0.1090 ho         1 A8P       0.463000
     75 HO41        -6.4050     3.5450    -2.1560 ho         1 A8P       0.468000
     76 HO42         1.1880     1.7790    -2.6600 ho         1 A8P       0.498000
     77 HO43         3.2540     0.2580    -2.7530 ho         1 A8P       0.506000
     78 HN44         3.6650    -2.1120     4.9210 hn         1 A8P       0.483500
     79 HN4A         2.5390    -3.1610     5.7230 hn         1 A8P       0.483500
     80 H9           3.5890     0.8480    -0.1750 hn         1 A8P       0.484000
     81 H82          5.3260     1.3800     2.1480 h1         1 A8P       0.046700
     82 H1B         11.7990     6.5850    -2.0520 hc         1 A8P       0.029700
     83 H2A         11.7410     5.1330     0.0040 hc         1 A8P       0.035200
     84 H39B        -6.3280    -0.2300    -0.1540 hn         1 A8P       0.533500
@<TRIPOS>BOND
     1     1     2 1   
     2     1    45 1   
     3     1    46 1   
     4     1    82 1   
     5     2     3 1   
     6     2    47 1   
     7     2    83 1   
     8     3     4 1   
     9     3    48 1   
    10     3    49 1   
    11     4     5 1   
    12     4    50 1   
    13     4    51 1   
    14     5     6 1   
    15     5    52 1   
    16     5    53 1   
    17     6     7 1   
    18     6    54 1   
    19     6    55 1   
    20     7     8 1   
    21     7    56 1   
    22     7    57 1   
    23     8     9 1   
    24     8    58 1   
    25     8    81 1   
    26     9    10 1   
    27     9    80 1   
    28    10    11 2   
    29    10    18 1   
    30    11    12 1   
    31    12    13 ar  
    32    12    17 ar  
    33    13    14 ar  
    34    13    44 1   
    35    14    15 ar  
    36    15    16 ar  
    37    15    59 1   
    38    16    17 ar  
    39    17    18 1   
    40    18    19 1   
    41    19    20 1   
    42    19    23 1   
    43    19    60 1   
    44    20    21 1   
    45    20    43 1   
    46    20    61 1   
    47    21    22 1   
    48    21    42 1   
    49    21    62 1   
    50    22    23 1   
    51    22    24 1   
    52    22    63 1   
    53    24    25 1   
    54    24    64 1   
    55    24    65 1   
    56    25    26 1   
    57    26    27 1   
    58    26    28 1   
    59    26    29 1   
    60    29    30 1   
    61    30    31 1   
    62    30    32 1   
    63    30    33 1   
    64    33    34 1   
    65    34    35 1   
    66    34    66 1   
    67    34    67 1   
    68    35    36 1   
    69    35    39 1   
    70    35    68 1   
    71    36    37 1   
    72    36    41 1   
    73    36    69 1   
    74    37    38 1   
    75    37    40 1   
    76    37    70 1   
    77    38    39 1   
    78    38    71 1   
    79    38    72 1   
    80    39    73 1   
    81    39    84 1   
    82    40    74 1   
    83    41    75 1   
    84    42    76 1   
    85    43    77 1   
    86    44    78 1   
    87    44    79 1   
@<TRIPOS>SUBSTRUCTURE
     1 A8P         1 TEMP              0 ****  ****    0 ROOT
