@<TRIPOS>MOLECULE
A8Q
   37    38     1     0     0
SMALL
No Charge or Current Charge


@<TRIPOS>ATOM
      1 C1          -1.4570    -1.4510     1.0470 c3         1 A8Q      -0.018400
      2 C7          -1.8390     2.0400    -0.5980 ca         1 A8Q      -0.085000
      3 C8          -1.2250     0.8780    -0.0720 cp         1 A8Q      -0.086000
      4 C9           0.2630     0.7950    -0.0650 cp         1 A8Q       0.051000
      5 C10          0.9990     1.4210     0.9670 ca         1 A8Q      -0.088000
      6 C11          2.4020     1.3510     0.9990 ca         1 A8Q      -0.082000
      7 C12          3.0970     0.6540    -0.0050 ca         1 A8Q      -0.193300
      8 C13          4.6070     0.5750     0.0290 c3         1 A8Q       0.167900
      9 C2          -1.9340    -2.7160     0.2980 c3         1 A8Q      -0.087100
     10 C3          -2.0490    -0.1670     0.4410 ca         1 A8Q      -0.040300
     11 C4          -3.4530    -0.0140     0.4090 ca         1 A8Q      -0.104000
     12 C5          -4.0420     1.1440    -0.1220 ca         1 A8Q      -0.081000
     13 C6          -3.2350     2.1730    -0.6260 ca         1 A8Q      -0.105000
     14 C15          0.9730     0.0990    -1.0750 ca         1 A8Q       0.123000
     15 C14          2.3770     0.0300    -1.0420 ca         1 A8Q      -0.079000
     16 N            4.9490    -0.6450     0.8230 nz         1 A8Q      -0.977000
     17 C           -1.7440    -1.5390     2.5620 c3         1 A8Q      -0.087100
     18 H1          -0.3660    -1.4420     0.9490 hc         1 A8Q       0.031700
     19 H2          -1.2190     2.8430    -0.9900 ha         1 A8Q       0.116000
     20 H3           0.4690     1.9600     1.7490 ha         1 A8Q       0.149000
     21 H4           2.9460     1.8400     1.8060 ha         1 A8Q       0.121000
     22 H5           5.0220     0.4880    -0.9820 hx         1 A8Q       0.106200
     23 H6           5.0380     1.4620     0.5060 hx         1 A8Q       0.106200
     24 H7          -1.7150    -2.6340    -0.7730 hc         1 A8Q       0.039867
     25 H8          -1.4200    -3.6060     0.6810 hc         1 A8Q       0.039867
     26 H9          -3.0120    -2.8700     0.4180 hc         1 A8Q       0.039867
     27 H10         -4.0980    -0.7960     0.8020 ha         1 A8Q       0.125000
     28 H11         -5.1250     1.2450    -0.1390 ha         1 A8Q       0.128000
     29 H12         -3.6890     3.0730    -1.0370 ha         1 A8Q       0.128000
     30 H13          2.9030    -0.5090    -1.8270 ha         1 A8Q       0.132000
     31 H14          4.5780    -0.6080     1.7830 hn         1 A8Q       0.509333
     32 H15          4.5690    -1.5080     0.4090 hn         1 A8Q       0.509333
     33 H16          5.9660    -0.7950     0.9160 hn         1 A8Q       0.509333
     34 H17         -1.2530    -2.4170     2.9990 hc         1 A8Q       0.039867
     35 H18         -1.3640    -0.6470     3.0760 hc         1 A8Q       0.039867
     36 H19         -2.8200    -1.6170     2.7590 hc         1 A8Q       0.039867
     37 Cl           0.1240    -0.6950    -2.4000 cl         1 A8Q      -0.140000
@<TRIPOS>BOND
     1     1     9 1   
     2     1    10 1   
     3     1    17 1   
     4     1    18 1   
     5     2     3 ar  
     6     2    13 ar  
     7     2    19 1   
     8     3     4 1   
     9     3    10 ar  
    10     4     5 ar  
    11     4    14 ar  
    12     5     6 ar  
    13     5    20 1   
    14     6     7 ar  
    15     6    21 1   
    16     7     8 1   
    17     7    15 ar  
    18     8    16 1   
    19     8    22 1   
    20     8    23 1   
    21     9    24 1   
    22     9    25 1   
    23     9    26 1   
    24    10    11 ar  
    25    11    12 ar  
    26    11    27 1   
    27    12    13 ar  
    28    12    28 1   
    29    13    29 1   
    30    14    15 ar  
    31    14    37 1   
    32    15    30 1   
    33    16    31 1   
    34    16    32 1   
    35    16    33 1   
    36    17    34 1   
    37    17    35 1   
    38    17    36 1   
@<TRIPOS>SUBSTRUCTURE
     1 A8Q         1 TEMP              0 ****  ****    0 ROOT
