@<TRIPOS>MOLECULE
A8Q
   37    38     1     0     0
SMALL
abcg2


@<TRIPOS>ATOM
      1 C1          -1.4700    -1.4880     0.9360 c3         1 A8Q      -0.018400
      2 C7          -1.8070     2.0260    -0.5310 ca         1 A8Q      -0.085000
      3 C8          -1.2350     0.8410    -0.0700 cp         1 A8Q      -0.086000
      4 C9           0.2460     0.7460    -0.0450 cp         1 A8Q       0.051000
      5 C10          0.9710     1.4030     0.9450 ca         1 A8Q      -0.088000
      6 C11          2.3560     1.3590     0.9760 ca         1 A8Q      -0.082000
      7 C12          3.0520     0.6500     0.0050 ca         1 A8Q      -0.193300
      8 C13          4.5480     0.5740     0.0410 c3         1 A8Q       0.167900
      9 C2          -2.0850    -2.7300     0.2940 c3         1 A8Q      -0.087100
     10 C3          -2.0480    -0.2050     0.3790 ca         1 A8Q      -0.040300
     11 C4          -3.4290    -0.0200     0.3530 ca         1 A8Q      -0.104000
     12 C5          -3.9970     1.1570    -0.1100 ca         1 A8Q      -0.081000
     13 C6          -3.1830     2.1880    -0.5560 ca         1 A8Q      -0.105000
     14 C15          0.9650     0.0440    -1.0100 ca         1 A8Q       0.123000
     15 C14          2.3490    -0.0100    -0.9940 ca         1 A8Q      -0.079000
     16 N            4.9970    -0.5650     0.8920 nz         1 A8Q      -0.977000
     17 C           -1.6210    -1.5200     2.4590 c3         1 A8Q      -0.087100
     18 H1          -0.4000    -1.5100     0.7190 hc         1 A8Q       0.031700
     19 H2          -1.1650     2.8260    -0.8790 ha         1 A8Q       0.116000
     20 H3           0.4340     1.9560     1.7060 ha         1 A8Q       0.149000
     21 H4           2.8920     1.8810     1.7590 ha         1 A8Q       0.121000
     22 H5           4.9710     0.4080    -0.9470 hx         1 A8Q       0.106200
     23 H6           4.9920     1.4720     0.4630 hx         1 A8Q       0.106200
     24 H7          -1.9580    -2.7170    -0.7890 hc         1 A8Q       0.039867
     25 H8          -1.6010    -3.6290     0.6780 hc         1 A8Q       0.039867
     26 H9          -3.1510    -2.8180     0.5060 hc         1 A8Q       0.039867
     27 H10         -4.0790    -0.8120     0.7070 ha         1 A8Q       0.125000
     28 H11         -5.0740     1.2690    -0.1180 ha         1 A8Q       0.128000
     29 H12         -3.6130     3.1110    -0.9220 ha         1 A8Q       0.128000
     30 H13          2.8770    -0.5560    -1.7660 ha         1 A8Q       0.132000
     31 H14          4.6900    -0.4640     1.8600 hn         1 A8Q       0.509333
     32 H15          4.6410    -1.4590     0.5540 hn         1 A8Q       0.509333
     33 H16          6.0150    -0.6350     0.9080 hn         1 A8Q       0.509333
     34 H17         -1.1690    -2.4250     2.8690 hc         1 A8Q       0.039867
     35 H18         -1.1360    -0.6610     2.9240 hc         1 A8Q       0.039867
     36 H19         -2.6720    -1.5100     2.7550 hc         1 A8Q       0.039867
     37 CL           0.1200    -0.7840    -2.2730 cl         1 A8Q      -0.140000
@<TRIPOS>BOND
     1     1     9 1   
     2     1    10 1   
     3     1    17 1   
     4     1    18 1   
     5     2     3 ar  
     6     2    13 ar  
     7     2    19 1   
     8     3     4 1   
     9     3    10 ar  
    10     4     5 ar  
    11     4    14 ar  
    12     5     6 ar  
    13     5    20 1   
    14     6     7 ar  
    15     6    21 1   
    16     7     8 1   
    17     7    15 ar  
    18     8    16 1   
    19     8    22 1   
    20     8    23 1   
    21     9    24 1   
    22     9    25 1   
    23     9    26 1   
    24    10    11 ar  
    25    11    12 ar  
    26    11    27 1   
    27    12    13 ar  
    28    12    28 1   
    29    13    29 1   
    30    14    15 ar  
    31    14    37 1   
    32    15    30 1   
    33    16    31 1   
    34    16    32 1   
    35    16    33 1   
    36    17    34 1   
    37    17    35 1   
    38    17    36 1   
@<TRIPOS>SUBSTRUCTURE
     1 A8Q         1 TEMP              0 ****  ****    0 ROOT
