@<TRIPOS>MOLECULE
A8S
   38    38     1     0     0
SMALL
bcc


@<TRIPOS>ATOM
      1 C1           4.4660    -0.0060    -0.8340 c          1 A8S       0.905800
      2 C2           3.9150     0.7180     0.3730 ce         1 A8S      -0.148200
      3 C3           2.6510     0.8330     0.8240 cf         1 A8S      -0.164200
      4 C4           1.5000     0.2160     0.1640 cf         1 A8S      -0.030000
      5 C5           0.2420     0.3400     0.5970 c2         1 A8S      -0.309200
      6 C6           2.3830     1.6500     2.0580 c3         1 A8S      -0.044900
      7 C7          -0.9640    -0.2700    -0.0680 c6         1 A8S       0.251200
      8 O7          -0.6110    -1.2200    -1.0500 oh         1 A8S      -0.591800
      9 C8          -1.8020    -1.0040     0.9850 c2         1 A8S      -0.052400
     10 C9          -3.1400    -1.0330     0.9390 ce         1 A8S      -0.275200
     11 C10         -3.9200    -0.3590    -0.1000 c          1 A8S       0.585300
     12 O10         -5.1380    -0.3480    -0.0680 o          1 A8S      -0.560100
     13 C11         -3.1380     0.2510    -1.2260 c6         1 A8S      -0.176400
     14 O11          5.6810     0.1980    -1.0430 o          1 A8S      -0.825800
     15 C12         -1.7930     0.8380    -0.7840 c6         1 A8S      -0.014000
     16 O12          3.7190    -0.7330    -1.5220 o          1 A8S      -0.825800
     17 C13         -1.0560    -1.7690     2.0320 c3         1 A8S      -0.065900
     18 C14         -1.0600     1.3580    -2.0210 c3         1 A8S      -0.080600
     19 C15         -2.0490     2.0260     0.1510 c3         1 A8S      -0.080600
     20 H2           4.6750     1.2410     0.9470 ha         1 A8S       0.097000
     21 H4           1.7200    -0.3570    -0.7260 ha         1 A8S       0.180000
     22 H5           0.0210     0.9170     1.4880 ha         1 A8S       0.112000
     23 H6           1.7030     2.4780     1.8460 hc         1 A8S       0.018700
     24 H6A          1.9130     1.0500     2.8410 hc         1 A8S       0.018700
     25 H6B          3.3020     2.0680     2.4650 hc         1 A8S       0.018700
     26 HO7         -0.0130    -1.8670    -0.6590 ho         1 A8S       0.418000
     27 H9          -3.7000    -1.5860     1.6870 ha         1 A8S       0.132000
     28 H11         -2.9750    -0.5400    -1.9660 hc         1 A8S       0.069700
     29 H11A        -3.7430     1.0180    -1.7160 hc         1 A8S       0.069700
     30 H13         -0.5080    -1.1020     2.6990 hc         1 A8S       0.048033
     31 H13A        -1.7270    -2.3780     2.6350 hc         1 A8S       0.048033
     32 H14         -0.9450     0.5930    -2.7880 hc         1 A8S       0.037533
     33 H14A        -1.6310     2.1790    -2.4590 hc         1 A8S       0.037533
     34 H14B        -0.0710     1.7420    -1.7700 hc         1 A8S       0.037533
     35 H15         -1.1310     2.5800     0.3530 hc         1 A8S       0.037533
     36 H15A        -2.7460     2.7180    -0.3240 hc         1 A8S       0.037533
     37 H15B        -2.4780     1.7340     1.1110 hc         1 A8S       0.037533
     38 H13B        -0.3120    -2.4310     1.5830 hc         1 A8S       0.048033
@<TRIPOS>BOND
     1     1     2 1   
     2     1    14 1   
     3     1    16 1   
     4     2     3 2   
     5     2    20 1   
     6     3     4 1   
     7     3     6 1   
     8     4     5 2   
     9     4    21 1   
    10     5     7 1   
    11     5    22 1   
    12     6    23 1   
    13     6    24 1   
    14     6    25 1   
    15     7     8 1   
    16     7     9 1   
    17     7    15 1   
    18     8    26 1   
    19     9    10 2   
    20     9    17 1   
    21    10    11 1   
    22    10    27 1   
    23    11    12 2   
    24    11    13 1   
    25    13    15 1   
    26    13    28 1   
    27    13    29 1   
    28    15    18 1   
    29    15    19 1   
    30    17    30 1   
    31    17    31 1   
    32    17    38 1   
    33    18    32 1   
    34    18    33 1   
    35    18    34 1   
    36    19    35 1   
    37    19    36 1   
    38    19    37 1   
@<TRIPOS>SUBSTRUCTURE
     1 A8S         1 TEMP              0 ****  ****    0 ROOT
