@<TRIPOS>MOLECULE
A8S
   38    38     1     0     0
SMALL
No Charge or Current Charge


@<TRIPOS>ATOM
      1 C1           4.5300    -0.1200    -0.8340 c          1 A8S       0.695200
      2 C2           3.9910     0.7180     0.2920 ce         1 A8S      -0.198200
      3 C3           2.7020     0.9150     0.7310 cf         1 A8S      -0.164200
      4 C4           1.5020     0.3490     0.0950 cf         1 A8S      -0.080000
      5 C5           0.2780     0.2400     0.6800 c2         1 A8S      -0.359200
      6 C6           2.4660     1.8410     1.9190 c3         1 A8S      -0.044900
      7 C7          -0.9850    -0.3290    -0.0230 c6         1 A8S       0.274400
      8 O7          -0.5490    -1.3010    -0.9710 oh         1 A8S      -0.654000
      9 C8          -1.9070    -1.0970     0.9860 c2         1 A8S      -0.052400
     10 C9          -3.2670    -1.1280     0.8730 ce         1 A8S      -0.325200
     11 C10         -3.9850    -0.3910    -0.1920 c          1 A8S       0.585300
     12 O10         -5.2050    -0.2960    -0.1900 o          1 A8S      -0.560100
     13 C11         -3.1350     0.2540    -1.2890 c6         1 A8S      -0.176400
     14 O11          5.7380    -0.0920    -1.0110 o          1 A8S      -0.720500
     15 C12         -1.7900     0.8260    -0.7530 c6         1 A8S      -0.014000
     16 O12          3.7820    -0.8040    -1.5140 o          1 A8S      -0.720500
     17 C13         -1.1950    -1.8570     2.0980 c3         1 A8S      -0.065900
     18 C14         -0.9960     1.4500    -1.9490 c3         1 A8S      -0.080600
     19 C15         -2.0910     2.0050     0.2320 c3         1 A8S      -0.080600
     20 H2           4.7810     1.2290     0.8360 ha         1 A8S       0.147000
     21 H4           1.6120     0.0120    -0.9370 ha         1 A8S       0.230000
     22 H5           0.1720     0.5980     1.7180 ha         1 A8S       0.162000
     23 H6           1.6190     2.5150     1.7430 hc         1 A8S       0.018700
     24 H6A          2.2570     1.2680     2.8310 hc         1 A8S       0.018700
     25 H6B          3.3360     2.4770     2.1260 hc         1 A8S       0.018700
     26 HO7          0.0160    -1.9170    -0.4620 ho         1 A8S       0.457000
     27 H9          -3.8900    -1.6580     1.5910 ha         1 A8S       0.182000
     28 H11         -2.8890    -0.5540    -1.9890 hc         1 A8S       0.069700
     29 H11A        -3.7350     0.9920    -1.8380 hc         1 A8S       0.069700
     30 H13         -0.8340    -1.1770     2.8780 hc         1 A8S       0.048033
     31 H13A        -1.8650    -2.5770     2.5830 hc         1 A8S       0.048033
     32 H14         -0.7520     0.7020    -2.7120 hc         1 A8S       0.037533
     33 H14A        -1.5780     2.2360    -2.4450 hc         1 A8S       0.037533
     34 H14B        -0.0550     1.9070    -1.6210 hc         1 A8S       0.037533
     35 H15         -1.1770     2.5330     0.5280 hc         1 A8S       0.037533
     36 H15A        -2.7580     2.7470    -0.2240 hc         1 A8S       0.037533
     37 H15B        -2.5710     1.6510     1.1510 hc         1 A8S       0.037533
     38 H13B        -0.3360    -2.4210     1.7160 hc         1 A8S       0.048033
@<TRIPOS>BOND
     1     1     2 1   
     2     1    14 1   
     3     1    16 1   
     4     2     3 2   
     5     2    20 1   
     6     3     4 1   
     7     3     6 1   
     8     4     5 2   
     9     4    21 1   
    10     5     7 1   
    11     5    22 1   
    12     6    23 1   
    13     6    24 1   
    14     6    25 1   
    15     7     8 1   
    16     7     9 1   
    17     7    15 1   
    18     8    26 1   
    19     9    10 2   
    20     9    17 1   
    21    10    11 1   
    22    10    27 1   
    23    11    12 2   
    24    11    13 1   
    25    13    15 1   
    26    13    28 1   
    27    13    29 1   
    28    15    18 1   
    29    15    19 1   
    30    17    30 1   
    31    17    31 1   
    32    17    38 1   
    33    18    32 1   
    34    18    33 1   
    35    18    34 1   
    36    19    35 1   
    37    19    36 1   
    38    19    37 1   
@<TRIPOS>SUBSTRUCTURE
     1 A8S         1 TEMP              0 ****  ****    0 ROOT
