@<TRIPOS>MOLECULE
A8T
   62    66     1     0     0
SMALL
bcc


@<TRIPOS>ATOM
      1 C12          8.8760     0.4560    -1.1330 c3         1 A8T      -0.099600
      2 C11          8.3100     0.0990     0.2390 c3         1 A8T       0.223100
      3 C13          8.7820    -1.2940     0.6600 c3         1 A8T      -0.099600
      4 O1           8.8270     1.0650     1.1380 oh         1 A8T      -0.596800
      5 C2           6.7900     0.1830     0.1880 ca         1 A8T      -0.286600
      6 C3           6.0010    -0.8450    -0.3070 ca         1 A8T       0.458200
      7 N1           4.6800    -0.8050    -0.4100 nb         1 A8T      -0.748000
      8 C1           6.0960     1.3190     0.6010 ca         1 A8T      -0.045000
      9 C5           4.7200     1.3830     0.5110 ca         1 A8T      -0.312300
     10 C4           4.0210     0.2860    -0.0240 ca         1 A8T       0.677200
     11 N2           2.6560     0.2820    -0.1990 nh         1 A8T      -0.768300
     12 C9           1.9630    -0.9940    -0.2400 c6         1 A8T       0.209300
     13 C8           0.6290    -0.8580    -0.9380 c6         1 A8T       0.183300
     14 C6           1.8540     1.3740     0.3140 c6         1 A8T       0.209300
     15 C7           0.5100     1.4540    -0.3910 c6         1 A8T       0.183300
     16 N3          -0.1720     0.1780    -0.2920 nh         1 A8T      -0.752300
     17 C10         -1.5340     0.1630    -0.5450 ca         1 A8T       0.603200
     18 N5          -2.0580     1.1700    -1.1840 nb         1 A8T      -0.395000
     19 N4          -3.3710     1.2120    -1.4550 nb         1 A8T      -0.313000
     20 C14         -2.3320    -0.9240    -0.0520 ca         1 A8T      -0.133300
     21 C17         -1.8400    -1.9410     0.7850 ca         1 A8T      -0.096000
     22 C18         -2.6760    -2.9450     1.2040 ca         1 A8T      -0.123000
     23 C19         -4.0230    -2.9620     0.8080 ca         1 A8T      -0.113000
     24 C20         -4.5300    -1.9520     0.0290 ca         1 A8T      -0.104000
     25 C15         -3.6930    -0.9050    -0.3990 ca         1 A8T      -0.115300
     26 C16         -4.1610     0.2310    -1.1320 ca         1 A8T       0.371600
     27 C21         -5.6050     0.3790    -1.5170 c3         1 A8T      -0.083400
     28 C22         -6.4980     0.7090    -0.3420 ca         1 A8T      -0.081300
     29 C23         -6.1950     1.7750     0.5020 ca         1 A8T      -0.123500
     30 C24         -7.0220     2.0890     1.5700 ca         1 A8T      -0.127000
     31 C25         -8.1680     1.3410     1.8120 ca         1 A8T      -0.127000
     32 C26         -8.4800     0.2790     0.9750 ca         1 A8T      -0.127000
     33 C27         -7.6490    -0.0330    -0.0940 ca         1 A8T      -0.123500
     34 H1           8.5050    -0.2370    -1.8890 hc         1 A8T       0.043867
     35 H2           8.5800     1.4630    -1.4290 hc         1 A8T       0.043867
     36 H3           9.9660     0.4030    -1.1330 hc         1 A8T       0.043867
     37 H4           8.3640    -1.5770     1.6290 hc         1 A8T       0.043867
     38 H5           8.4970    -2.0610    -0.0600 hc         1 A8T       0.043867
     39 H6           9.8700    -1.3100     0.7380 hc         1 A8T       0.043867
     40 H7           8.5640     0.8210     2.0330 ho         1 A8T       0.403000
     41 H8           6.4550    -1.7690    -0.6500 h4         1 A8T       0.013100
     42 H9           6.6260     2.1670     1.0110 ha         1 A8T       0.144000
     43 H10          4.2140     2.2660     0.8690 ha         1 A8T       0.140000
     44 H11          2.5710    -1.7160    -0.7770 h1         1 A8T       0.053950
     45 H12          1.8050    -1.3830     0.7760 h1         1 A8T       0.053950
     46 H13          0.7890    -0.6030    -1.9960 h1         1 A8T       0.057700
     47 H14          0.1160    -1.8180    -0.9160 h1         1 A8T       0.057700
     48 H15          1.6970     1.2800     1.3980 h1         1 A8T       0.053950
     49 H16          2.3600     2.3210     0.1370 h1         1 A8T       0.053950
     50 H17         -0.0850     2.2300     0.0890 h1         1 A8T       0.057700
     51 H18          0.6620     1.7520    -1.4360 h1         1 A8T       0.057700
     52 H19         -0.8120    -1.9200     1.1200 ha         1 A8T       0.149000
     53 H20         -2.2980    -3.7260     1.8500 ha         1 A8T       0.136000
     54 H21         -4.6680    -3.7640     1.1380 ha         1 A8T       0.137000
     55 H22         -5.5760    -1.9610    -0.2440 ha         1 A8T       0.144000
     56 H23         -5.6680     1.1790    -2.2580 hc         1 A8T       0.068700
     57 H24         -5.9620    -0.5300    -2.0070 hc         1 A8T       0.068700
     58 H25         -5.3070     2.3710     0.3240 ha         1 A8T       0.134000
     59 H26         -6.7720     2.9210     2.2160 ha         1 A8T       0.130500
     60 H27         -8.8140     1.5860     2.6460 ha         1 A8T       0.130000
     61 H28         -9.3710    -0.3100     1.1520 ha         1 A8T       0.130500
     62 H29         -7.9010    -0.8640    -0.7430 ha         1 A8T       0.134000
@<TRIPOS>BOND
     1     1     2 1   
     2     1    34 1   
     3     1    35 1   
     4     1    36 1   
     5     2     3 1   
     6     2     4 1   
     7     2     5 1   
     8     3    37 1   
     9     3    38 1   
    10     3    39 1   
    11     4    40 1   
    12     5     6 ar  
    13     5     8 ar  
    14     6     7 ar  
    15     6    41 1   
    16     7    10 ar  
    17     8     9 ar  
    18     8    42 1   
    19     9    10 ar  
    20     9    43 1   
    21    10    11 1   
    22    11    12 1   
    23    11    14 1   
    24    12    13 1   
    25    12    44 1   
    26    12    45 1   
    27    13    16 1   
    28    13    46 1   
    29    13    47 1   
    30    14    15 1   
    31    14    48 1   
    32    14    49 1   
    33    15    16 1   
    34    15    50 1   
    35    15    51 1   
    36    16    17 1   
    37    17    18 ar  
    38    17    20 ar  
    39    18    19 ar  
    40    19    26 ar  
    41    20    21 ar  
    42    20    25 ar  
    43    21    22 ar  
    44    21    52 1   
    45    22    23 ar  
    46    22    53 1   
    47    23    24 ar  
    48    23    54 1   
    49    24    25 ar  
    50    24    55 1   
    51    25    26 ar  
    52    26    27 1   
    53    27    28 1   
    54    27    56 1   
    55    27    57 1   
    56    28    29 ar  
    57    28    33 ar  
    58    29    30 ar  
    59    29    58 1   
    60    30    31 ar  
    61    30    59 1   
    62    31    32 ar  
    63    31    60 1   
    64    32    33 ar  
    65    32    61 1   
    66    33    62 1   
@<TRIPOS>SUBSTRUCTURE
     1 A8T         1 TEMP              0 ****  ****    0 ROOT
