@<TRIPOS>MOLECULE
A8T
   62    66     1     0     0
SMALL
No Charge or Current Charge


@<TRIPOS>ATOM
      1 C12          9.0400     1.3660    -0.4520 c3         1 A8T      -0.099600
      2 C11          8.4620     0.0990     0.2150 c3         1 A8T       0.246300
      3 C13          9.0940    -1.1680    -0.4130 c3         1 A8T      -0.099600
      4 O1           8.8540     0.1170     1.5850 oh         1 A8T      -0.659000
      5 C2           6.9280     0.1270     0.1580 ca         1 A8T      -0.221300
      6 C3           6.1830    -0.7500    -0.6620 ca         1 A8T       0.392900
      7 N1           4.8350    -0.7380    -0.7430 nb         1 A8T      -0.748000
      8 C1           6.2090     1.0720     0.9170 ca         1 A8T      -0.027000
      9 C5           4.8110     1.0830     0.8300 ca         1 A8T      -0.229000
     10 C4           4.1620     0.1610    -0.0090 ca         1 A8T       0.611900
     11 N2           2.7640     0.1120    -0.1610 nh         1 A8T      -0.768300
     12 C9           2.0420    -1.2060    -0.1860 c6         1 A8T       0.209300
     13 C8           0.6490    -1.1270    -0.8870 c6         1 A8T       0.183300
     14 C6           1.8990     1.2410     0.3130 c6         1 A8T       0.209300
     15 C7           0.5040     1.2870    -0.3910 c6         1 A8T       0.183300
     16 N3          -0.2040    -0.0290    -0.3440 nh         1 A8T      -0.752300
     17 C10         -1.6000    -0.0870    -0.5570 ca         1 A8T       0.537900
     18 N5          -2.0980     0.7740    -1.4790 nb         1 A8T      -0.395000
     19 N4          -3.4110     0.7890    -1.7820 nb         1 A8T      -0.313000
     20 C14         -2.4510    -0.9950     0.1280 ca         1 A8T      -0.068000
     21 C17         -1.9680    -1.8820     1.1170 ca         1 A8T      -0.078000
     22 C18         -2.8480    -2.7650     1.7650 ca         1 A8T      -0.105000
     23 C19         -4.2120    -2.7670     1.4370 ca         1 A8T      -0.095000
     24 C20         -4.7060    -1.8810     0.4640 ca         1 A8T      -0.086000
     25 C15         -3.8320    -0.9850    -0.1940 ca         1 A8T      -0.050000
     26 C16         -4.2810    -0.0580    -1.1730 ca         1 A8T       0.306300
     27 C21         -5.7420     0.0700    -1.6070 c3         1 A8T      -0.083400
     28 C22         -6.6310     0.6800    -0.5260 ca         1 A8T      -0.081300
     29 C23         -6.2760     1.9010     0.0820 ca         1 A8T      -0.105500
     30 C24         -7.0930     2.4630     1.0790 ca         1 A8T      -0.109000
     31 C25         -8.2730     1.8100     1.4720 ca         1 A8T      -0.109000
     32 C26         -8.6370     0.5960     0.8650 ca         1 A8T      -0.109000
     33 C27         -7.8200     0.0340    -0.1320 ca         1 A8T      -0.105500
     34 H1           8.7520     1.4110    -1.5090 hc         1 A8T       0.043867
     35 H2           8.6720     2.2750     0.0380 hc         1 A8T       0.043867
     36 H3          10.1360     1.3740    -0.3970 hc         1 A8T       0.043867
     37 H4           8.6780    -2.0800     0.0320 hc         1 A8T       0.043867
     38 H5           8.9200    -1.1990    -1.4960 hc         1 A8T       0.043867
     39 H6          10.1790    -1.1800    -0.2540 hc         1 A8T       0.043867
     40 H7           8.3490    -0.5980     2.0260 ho         1 A8T       0.442000
     41 H8           6.6680    -1.4970    -1.2880 h4         1 A8T       0.013100
     42 H9           6.7220     1.7830     1.5630 ha         1 A8T       0.126000
     43 H10          4.2460     1.7970     1.4200 ha         1 A8T       0.122000
     44 H11          2.6300    -1.9760    -0.7050 h1         1 A8T       0.053950
     45 H12          1.8930    -1.5590     0.8450 h1         1 A8T       0.053950
     46 H13          0.8100    -0.9700    -1.9640 h1         1 A8T       0.057700
     47 H14          0.1480    -2.1000    -0.7770 h1         1 A8T       0.057700
     48 H15          1.7400     1.1540     1.3980 h1         1 A8T       0.053950
     49 H16          2.3930     2.2060     0.1300 h1         1 A8T       0.053950
     50 H17         -0.1020     2.0650     0.0960 h1         1 A8T       0.057700
     51 H18          0.6520     1.5940    -1.4370 h1         1 A8T       0.057700
     52 H19         -0.9170    -1.8880     1.3940 ha         1 A8T       0.131000
     53 H20         -2.4710    -3.4460     2.5250 ha         1 A8T       0.118000
     54 H21         -4.8900    -3.4520     1.9410 ha         1 A8T       0.119000
     55 H22         -5.7670    -1.9030     0.2350 ha         1 A8T       0.126000
     56 H23         -5.8130     0.6860    -2.5120 hc         1 A8T       0.068700
     57 H24         -6.1150    -0.9160    -1.9070 hc         1 A8T       0.068700
     58 H25         -5.3670     2.4190    -0.2170 ha         1 A8T       0.116000
     59 H26         -6.8120     3.4040     1.5450 ha         1 A8T       0.112500
     60 H27         -8.9050     2.2440     2.2430 ha         1 A8T       0.112000
     61 H28         -9.5520     0.0910     1.1670 ha         1 A8T       0.112500
     62 H29         -8.1150    -0.9050    -0.5960 ha         1 A8T       0.116000
@<TRIPOS>BOND
     1     1     2 1   
     2     1    34 1   
     3     1    35 1   
     4     1    36 1   
     5     2     3 1   
     6     2     4 1   
     7     2     5 1   
     8     3    37 1   
     9     3    38 1   
    10     3    39 1   
    11     4    40 1   
    12     5     6 ar  
    13     5     8 ar  
    14     6     7 ar  
    15     6    41 1   
    16     7    10 ar  
    17     8     9 ar  
    18     8    42 1   
    19     9    10 ar  
    20     9    43 1   
    21    10    11 1   
    22    11    12 1   
    23    11    14 1   
    24    12    13 1   
    25    12    44 1   
    26    12    45 1   
    27    13    16 1   
    28    13    46 1   
    29    13    47 1   
    30    14    15 1   
    31    14    48 1   
    32    14    49 1   
    33    15    16 1   
    34    15    50 1   
    35    15    51 1   
    36    16    17 1   
    37    17    18 ar  
    38    17    20 ar  
    39    18    19 ar  
    40    19    26 ar  
    41    20    21 ar  
    42    20    25 ar  
    43    21    22 ar  
    44    21    52 1   
    45    22    23 ar  
    46    22    53 1   
    47    23    24 ar  
    48    23    54 1   
    49    24    25 ar  
    50    24    55 1   
    51    25    26 ar  
    52    26    27 1   
    53    27    28 1   
    54    27    56 1   
    55    27    57 1   
    56    28    29 ar  
    57    28    33 ar  
    58    29    30 ar  
    59    29    58 1   
    60    30    31 ar  
    61    30    59 1   
    62    31    32 ar  
    63    31    60 1   
    64    32    33 ar  
    65    32    61 1   
    66    33    62 1   
@<TRIPOS>SUBSTRUCTURE
     1 A8T         1 TEMP              0 ****  ****    0 ROOT
