@<TRIPOS>MOLECULE
A8U
   67    71     1     0     0
SMALL
No Charge or Current Charge


@<TRIPOS>ATOM
      1 CAA          4.1900     0.0690    -1.3570 c6         1 A8U       0.092700
      2 CAC          5.1030    -1.2830     0.4960 c6         1 A8U       0.070000
      3 CAD          4.4510    -0.3380     1.5310 c6         1 A8U       0.056000
      4 CAF          3.5120     1.0180    -0.3260 c6         1 A8U       0.067000
      5 CAI          0.7710     0.8410     1.0340 ca         1 A8U      -0.138600
      6 CAJ         -0.5140     0.2780     0.8690 ca         1 A8U      -0.040000
      7 CAK         -1.6390     1.0760     0.5880 ca         1 A8U       0.273000
      8 CAL         -1.4660     2.4770     0.4890 ca         1 A8U      -0.077000
      9 CAM         -0.1980     3.0560     0.6760 ca         1 A8U      -0.092000
     10 CAN          0.9130     2.2450     0.9540 ca         1 A8U      -0.089000
     11 CAP         -3.9360     1.2570     0.1420 cp         1 A8U       0.433500
     12 CAQ         -3.8260     2.6670     0.0400 ca         1 A8U      -0.149000
     13 CAR         -2.5800     3.2870     0.2130 ca         1 A8U      -0.064000
     14 CAT          4.3170     0.7800    -2.7330 c3         1 A8U      -0.086100
     15 CAX          9.0560    -0.9370    -0.8050 c3         1 A8U       0.180600
     16 CAY          9.8510    -1.7530     0.2330 c3         1 A8U      -0.085400
     17 CAZ         11.3700    -1.7460    -0.0290 c3         1 A8U      -0.090100
     18 CBA         -5.2460     0.5330    -0.0330 cp         1 A8U      -0.158500
     19 CBB         -6.3180     1.1000    -0.7680 ca         1 A8U      -0.073000
     20 CBC         -7.5400     0.4240    -0.9300 ca         1 A8U      -0.123500
     21 CBD         -7.7500    -0.8570    -0.3650 ca         1 A8U      -0.050300
     22 CBE         -6.6820    -1.4310     0.3630 ca         1 A8U      -0.123500
     23 CBF         -5.4610    -0.7540     0.5240 ca         1 A8U      -0.073000
     24 CBG         -9.0720    -1.6100    -0.5290 cx         1 A8U       0.133500
     25 CBH         -9.0870    -3.1160    -0.6790 cx         1 A8U      -0.103900
     26 CBI         -9.6060    -2.4840     0.5860 cx         1 A8U      -0.103900
     27 NAB          5.4260    -0.5380    -0.7570 n          1 A8U      -0.379800
     28 NAE          3.2430     0.3390     0.9790 n          1 A8U      -0.404800
     29 NAO         -2.8510     0.4960     0.4200 nb         1 A8U      -0.670000
     30 NBJ        -10.0790    -0.9060    -1.2910 n8         1 A8U      -0.984200
     31 OAH          1.7670    -1.0880     2.0090 o          1 A8U      -0.586100
     32 OAV          7.6660    -1.0230    -0.4480 os         1 A8U      -0.463100
     33 OAW          7.0710     0.2840    -2.2160 o          1 A8U      -0.537000
     34 H1           3.4900    -0.7620    -1.5280 h1         1 A8U       0.060700
     35 H2           5.9860    -1.7530     0.9500 h1         1 A8U       0.074200
     36 H3           4.4010    -2.0960     0.2590 h1         1 A8U       0.074200
     37 H4           4.2010    -0.9050     2.4390 h1         1 A8U       0.071700
     38 H5           5.1830     0.4280     1.8250 h1         1 A8U       0.071700
     39 H6           4.1600     1.8880    -0.1490 h1         1 A8U       0.067700
     40 H7           2.5800     1.3890    -0.7700 h1         1 A8U       0.067700
     41 H8          -0.6460    -0.7980     0.9470 ha         1 A8U       0.142000
     42 H9          -0.0730     4.1350     0.6150 ha         1 A8U       0.120000
     43 H10          1.8790     2.7160     1.1250 ha         1 A8U       0.124000
     44 H11         -4.7010     3.2770    -0.1560 ha         1 A8U       0.126000
     45 H12         -2.4850     4.3680     0.1390 ha         1 A8U       0.121000
     46 H13          4.9340     1.6840    -2.6690 hc         1 A8U       0.052367
     47 H14          4.7510     0.1140    -3.4880 hc         1 A8U       0.052367
     48 H15          3.3320     1.0860    -3.1040 hc         1 A8U       0.052367
     49 H16          9.3980     0.1070    -0.7920 h1         1 A8U       0.049700
     50 H17          9.2280    -1.3490    -1.8080 h1         1 A8U       0.049700
     51 H18          9.6580    -1.3480     1.2340 hc         1 A8U       0.052200
     52 H19          9.4910    -2.7890     0.2280 hc         1 A8U       0.052200
     53 H20         11.5960    -2.1750    -1.0130 hc         1 A8U       0.037033
     54 H21         11.7640    -0.7230     0.0010 hc         1 A8U       0.037033
     55 H22         11.8920    -2.3370     0.7320 hc         1 A8U       0.037033
     56 H23         -6.2070     2.0740    -1.2390 ha         1 A8U       0.123500
     57 H24         -8.3160     0.9180    -1.5080 ha         1 A8U       0.110500
     58 H25         -6.7860    -2.4120     0.8180 ha         1 A8U       0.110500
     59 H26         -4.6740    -1.2380     1.0990 ha         1 A8U       0.123500
     60 H27         -9.8150    -3.5560    -1.3570 hc         1 A8U       0.078450
     61 H28         -8.1420    -3.6500    -0.6330 hc         1 A8U       0.078450
     62 H29         -9.0120    -2.5900     1.4900 hc         1 A8U       0.078450
     63 H30        -10.6790    -2.5020     0.7540 hc         1 A8U       0.078450
     64 H31        -10.2480     0.0100    -0.8610 hn         1 A8U       0.407000
     65 H32         -9.6980    -0.6690    -2.2140 hn         1 A8U       0.407000
     66 CAG          1.9400    -0.0650     1.3570 c          1 A8U       0.614700
     67 CAU          6.7550    -0.3680    -1.2320 c          1 A8U       0.637100
@<TRIPOS>BOND
     1     1     4 1   
     2     1    14 1   
     3     1    27 1   
     4     1    34 1   
     5     2     3 1   
     6     2    27 1   
     7     2    35 1   
     8     2    36 1   
     9     3    28 1   
    10     3    37 1   
    11     3    38 1   
    12     4    28 1   
    13     4    39 1   
    14     4    40 1   
    15     5     6 ar  
    16     5    10 ar  
    17     5    66 1   
    18     6     7 ar  
    19     6    41 1   
    20     7     8 ar  
    21     7    29 ar  
    22     8     9 ar  
    23     8    13 ar  
    24     9    10 ar  
    25     9    42 1   
    26    10    43 1   
    27    11    12 ar  
    28    11    18 1   
    29    11    29 ar  
    30    12    13 ar  
    31    12    44 1   
    32    13    45 1   
    33    14    46 1   
    34    14    47 1   
    35    14    48 1   
    36    15    16 1   
    37    15    32 1   
    38    15    49 1   
    39    15    50 1   
    40    16    17 1   
    41    16    51 1   
    42    16    52 1   
    43    17    53 1   
    44    17    54 1   
    45    17    55 1   
    46    18    19 ar  
    47    18    23 ar  
    48    19    20 ar  
    49    19    56 1   
    50    20    21 ar  
    51    20    57 1   
    52    21    22 ar  
    53    21    24 1   
    54    22    23 ar  
    55    22    58 1   
    56    23    59 1   
    57    24    25 1   
    58    24    26 1   
    59    24    30 1   
    60    25    26 1   
    61    25    60 1   
    62    25    61 1   
    63    26    62 1   
    64    26    63 1   
    65    27    67 1   
    66    28    66 1   
    67    30    64 1   
    68    30    65 1   
    69    31    66 2   
    70    32    67 1   
    71    33    67 2   
@<TRIPOS>SUBSTRUCTURE
     1 A8U         1 TEMP              0 ****  ****    0 ROOT
