@<TRIPOS>MOLECULE
A8U
   67    71     1     0     0
SMALL
abcg2


@<TRIPOS>ATOM
      1 CAA          3.5770    -0.3990    -1.1330 c6         1 A8U       0.092700
      2 CAC          4.6750    -1.5360     0.6690 c6         1 A8U       0.070000
      3 CAD          4.4000    -0.3670     1.6080 c6         1 A8U       0.056000
      4 CAF          3.2990     0.8050    -0.2300 c6         1 A8U       0.067000
      5 CAI          0.9600     1.2140     1.4040 ca         1 A8U      -0.138600
      6 CAJ         -0.2480     0.6070     1.1820 ca         1 A8U      -0.040000
      7 CAK         -1.3650     1.3680     0.7690 ca         1 A8U       0.273000
      8 CAL         -1.2270     2.7680     0.6270 ca         1 A8U      -0.077000
      9 CAM          0.0210     3.3740     0.8850 ca         1 A8U      -0.092000
     10 CAN          1.0950     2.6140     1.2570 ca         1 A8U      -0.089000
     11 CAP         -3.5800     1.4080     0.1510 cp         1 A8U       0.433500
     12 CAQ         -3.5420     2.8210    -0.0020 ca         1 A8U      -0.149000
     13 CAR         -2.3760     3.4880     0.2320 ca         1 A8U      -0.064000
     14 CAT          3.4430    -0.0500    -2.6060 c3         1 A8U      -0.086100
     15 CAX          8.3670    -0.9080    -0.8970 c3         1 A8U       0.180600
     16 CAY          9.3210    -1.6850    -0.0140 c3         1 A8U      -0.085400
     17 CAZ         10.7670    -1.3610    -0.3660 c3         1 A8U      -0.090100
     18 CBA         -4.8210     0.6430    -0.0930 cp         1 A8U      -0.158500
     19 CBB         -5.9040     1.1830    -0.7820 ca         1 A8U      -0.073000
     20 CBC         -7.0580     0.4420    -0.9990 ca         1 A8U      -0.123500
     21 CBD         -7.1800    -0.8660    -0.5360 ca         1 A8U      -0.050300
     22 CBE         -6.0850    -1.4050     0.1490 ca         1 A8U      -0.123500
     23 CBF         -4.9350    -0.6730     0.3640 ca         1 A8U      -0.073000
     24 CBG         -8.4340    -1.6490    -0.7670 cx         1 A8U       0.133500
     25 CBH         -8.3060    -3.1340    -0.9960 cx         1 A8U      -0.103900
     26 CBI         -8.8550    -2.6320     0.2960 cx         1 A8U      -0.103900
     27 NAB          4.8190    -1.0460    -0.6980 n          1 A8U      -0.379800
     28 NAE          3.2360     0.3850     1.1620 n          1 A8U      -0.404800
     29 NAO         -2.5260     0.7260     0.5270 nb         1 A8U      -0.670000
     30 NBJ         -9.5200    -1.0300    -1.4660 n8         1 A8U      -0.984200
     31 OAH          1.9900    -0.2210     2.9570 o          1 A8U      -0.586100
     32 OAV          7.0320    -1.2340    -0.5010 os         1 A8U      -0.463100
     33 OAW          6.2200     0.0660    -2.1300 o          1 A8U      -0.537000
     34 H1           2.7990    -1.1410    -0.9230 h1         1 A8U       0.060700
     35 H2           5.5590    -2.0760     0.9910 h1         1 A8U       0.074200
     36 H3           3.8380    -2.2370     0.6920 h1         1 A8U       0.074200
     37 H4           4.2370    -0.7250     2.6210 h1         1 A8U       0.071700
     38 H5           5.2660     0.3020     1.6250 h1         1 A8U       0.071700
     39 H6           4.0870     1.5550    -0.3550 h1         1 A8U       0.067700
     40 H7           2.3600     1.2650    -0.5280 h1         1 A8U       0.067700
     41 H8          -0.3700    -0.4620     1.3010 ha         1 A8U       0.142000
     42 H9           0.1200     4.4480     0.7830 ha         1 A8U       0.120000
     43 H10          2.0510     3.0850     1.4470 ha         1 A8U       0.124000
     44 H11         -4.4270     3.3720    -0.2860 ha         1 A8U       0.126000
     45 H12         -2.3260     4.5640     0.1240 ha         1 A8U       0.121000
     46 H13          4.0060     0.8330    -2.8950 hc         1 A8U       0.052367
     47 H14          3.7520    -0.8820    -3.2370 hc         1 A8U       0.052367
     48 H15          2.3890     0.1420    -2.8050 hc         1 A8U       0.052367
     49 H16          8.5360     0.1670    -0.7880 h1         1 A8U       0.049700
     50 H17          8.5240    -1.1670    -1.9470 h1         1 A8U       0.049700
     51 H18          9.1330    -1.4420     1.0340 hc         1 A8U       0.052200
     52 H19          9.1420    -2.7560    -0.1320 hc         1 A8U       0.052200
     53 H20         10.9900    -1.6110    -1.4050 hc         1 A8U       0.037033
     54 H21         10.9830    -0.3010    -0.2250 hc         1 A8U       0.037033
     55 H22         11.4560    -1.9230     0.2630 hc         1 A8U       0.037033
     56 H23         -5.8650     2.1880    -1.1790 ha         1 A8U       0.123500
     57 H24         -7.8690     0.9070    -1.5420 ha         1 A8U       0.110500
     58 H25         -6.1220    -2.4190     0.5290 ha         1 A8U       0.110500
     59 H26         -4.1100    -1.1230     0.8990 ha         1 A8U       0.123500
     60 H27         -8.9930    -3.5730    -1.7070 hc         1 A8U       0.078450
     61 H28         -7.3130    -3.5660    -1.0050 hc         1 A8U       0.078450
     62 H29         -8.2460    -2.7150     1.1880 hc         1 A8U       0.078450
     63 H30         -9.9200    -2.7250     0.4680 hc         1 A8U       0.078450
     64 H31         -9.8320    -0.1960    -0.9840 hn         1 A8U       0.407000
     65 H32         -9.2430    -0.7500    -2.3980 hn         1 A8U       0.407000
     66 CAG          2.1070     0.3870     1.9030 c          1 A8U       0.614700
     67 CAU          6.0340    -0.6660    -1.1800 c          1 A8U       0.637100
@<TRIPOS>BOND
     1     1     4 1   
     2     1    14 1   
     3     1    27 1   
     4     1    34 1   
     5     2     3 1   
     6     2    27 1   
     7     2    35 1   
     8     2    36 1   
     9     3    28 1   
    10     3    37 1   
    11     3    38 1   
    12     4    28 1   
    13     4    39 1   
    14     4    40 1   
    15     5     6 ar  
    16     5    10 ar  
    17     5    66 1   
    18     6     7 ar  
    19     6    41 1   
    20     7     8 ar  
    21     7    29 ar  
    22     8     9 ar  
    23     8    13 ar  
    24     9    10 ar  
    25     9    42 1   
    26    10    43 1   
    27    11    12 ar  
    28    11    18 1   
    29    11    29 ar  
    30    12    13 ar  
    31    12    44 1   
    32    13    45 1   
    33    14    46 1   
    34    14    47 1   
    35    14    48 1   
    36    15    16 1   
    37    15    32 1   
    38    15    49 1   
    39    15    50 1   
    40    16    17 1   
    41    16    51 1   
    42    16    52 1   
    43    17    53 1   
    44    17    54 1   
    45    17    55 1   
    46    18    19 ar  
    47    18    23 ar  
    48    19    20 ar  
    49    19    56 1   
    50    20    21 ar  
    51    20    57 1   
    52    21    22 ar  
    53    21    24 1   
    54    22    23 ar  
    55    22    58 1   
    56    23    59 1   
    57    24    25 1   
    58    24    26 1   
    59    24    30 1   
    60    25    26 1   
    61    25    60 1   
    62    25    61 1   
    63    26    62 1   
    64    26    63 1   
    65    27    67 1   
    66    28    66 1   
    67    30    64 1   
    68    30    65 1   
    69    31    66 2   
    70    32    67 1   
    71    33    67 2   
@<TRIPOS>SUBSTRUCTURE
     1 A8U         1 TEMP              0 ****  ****    0 ROOT
