@<TRIPOS>MOLECULE
A8V
   43    44     1     0     0
SMALL
No Charge or Current Charge


@<TRIPOS>ATOM
      1 O1          -4.2410     0.5300     1.7050 oh         1 A8V      -0.651000
      2 C2          -3.6120    -0.2600     0.6910 c3         1 A8V       0.215600
      3 C1          -4.6530    -0.6540    -0.3820 c3         1 A8V      -0.118400
      4 C           -5.7350    -1.6180     0.1420 c3         1 A8V       0.164600
      5 O           -6.6180    -1.9730    -0.9270 oh         1 A8V      -0.663000
      6 C3          -2.4190     0.5090     0.1170 ca         1 A8V      -0.073300
      7 C15         -1.1060     0.0830     0.4050 ca         1 A8V      -0.142000
      8 C7           0.0060     0.7710    -0.1060 ca         1 A8V       0.150100
      9 C6          -0.1900     1.9080    -0.9180 ca         1 A8V      -0.198000
     10 C5          -1.4940     2.3450    -1.2070 ca         1 A8V      -0.071000
     11 C4          -2.6020     1.6510    -0.6930 ca         1 A8V      -0.137000
     12 O2           1.2610     0.2950     0.2140 os         1 A8V      -0.349100
     13 C8           2.4630     0.9230    -0.2640 c3         1 A8V       0.167600
     14 C9           3.6980     0.1400     0.2670 c6         1 A8V      -0.064700
     15 C14          3.7340    -1.3270    -0.2530 c6         1 A8V      -0.069900
     16 C13          4.9750    -2.0880     0.2760 c6         1 A8V      -0.072900
     17 C12          6.2850    -1.3470    -0.0840 c6         1 A8V      -0.075400
     18 C11          6.2600     0.1110     0.4340 c6         1 A8V      -0.072900
     19 C10          5.0200     0.8740    -0.0970 c6         1 A8V      -0.069900
     20 H1          -4.2410     1.4540     1.3750 ho         1 A8V       0.441000
     21 H2          -3.2330    -1.1920     1.1360 h1         1 A8V       0.076700
     22 H3          -5.1370     0.2430    -0.7860 hc         1 A8V       0.063200
     23 H4          -4.1280    -1.1360    -1.2150 hc         1 A8V       0.063200
     24 H5          -5.2540    -2.5160     0.5520 h1         1 A8V       0.021700
     25 H6          -6.2970    -1.1350     0.9540 h1         1 A8V       0.021700
     26 H7          -7.2930    -2.5810    -0.5500 ho         1 A8V       0.444000
     27 H8          -0.9420    -0.7910     1.0310 ha         1 A8V       0.125000
     28 H9           0.6480     2.4630    -1.3290 ha         1 A8V       0.117000
     29 H10         -1.6460     3.2230    -1.8310 ha         1 A8V       0.110000
     30 H11         -3.6020     2.0090    -0.9270 ha         1 A8V       0.112000
     31 H12          2.4890     0.9300    -1.3620 h1         1 A8V       0.034200
     32 H13          2.5200     1.9600     0.0930 h1         1 A8V       0.034200
     33 H14          3.6030     0.1240     1.3620 hc         1 A8V       0.061700
     34 H15          2.8250    -1.8620     0.0540 hc         1 A8V       0.042200
     35 H16          3.7410    -1.3330    -1.3530 hc         1 A8V       0.042200
     36 H17          4.9020    -2.2020     1.3670 hc         1 A8V       0.040200
     37 H18          4.9950    -3.1040    -0.1420 hc         1 A8V       0.040200
     38 H19          7.1450    -1.8800     0.3430 hc         1 A8V       0.038700
     39 H20          6.4250    -1.3500    -1.1740 hc         1 A8V       0.038700
     40 H21          6.2530     0.1140     1.5330 hc         1 A8V       0.040200
     41 H22          7.1770     0.6320     0.1270 hc         1 A8V       0.040200
     42 H23          5.0980     0.9850    -1.1880 hc         1 A8V       0.042200
     43 H24          5.0120     1.8910     0.3190 hc         1 A8V       0.042200
@<TRIPOS>BOND
     1     1     2 1   
     2     1    20 1   
     3     2     3 1   
     4     2     6 1   
     5     2    21 1   
     6     3     4 1   
     7     3    22 1   
     8     3    23 1   
     9     4     5 1   
    10     4    24 1   
    11     4    25 1   
    12     5    26 1   
    13     6     7 ar  
    14     6    11 ar  
    15     7     8 ar  
    16     7    27 1   
    17     8     9 ar  
    18     8    12 1   
    19     9    10 ar  
    20     9    28 1   
    21    10    11 ar  
    22    10    29 1   
    23    11    30 1   
    24    12    13 1   
    25    13    14 1   
    26    13    31 1   
    27    13    32 1   
    28    14    15 1   
    29    14    19 1   
    30    14    33 1   
    31    15    16 1   
    32    15    34 1   
    33    15    35 1   
    34    16    17 1   
    35    16    36 1   
    36    16    37 1   
    37    17    18 1   
    38    17    38 1   
    39    17    39 1   
    40    18    19 1   
    41    18    40 1   
    42    18    41 1   
    43    19    42 1   
    44    19    43 1   
@<TRIPOS>SUBSTRUCTURE
     1 A8V         1 TEMP              0 ****  ****    0 ROOT
