@<TRIPOS>MOLECULE
A8V
   43    44     1     0     0
SMALL
abcg2


@<TRIPOS>ATOM
      1 O1          -4.6630     1.0010     1.1370 oh         1 A8V      -0.651000
      2 C2          -3.6380     0.1250     0.7290 c3         1 A8V       0.215600
      3 C1          -4.1200    -0.8920    -0.3050 c3         1 A8V      -0.118400
      4 C           -5.2430    -1.7720     0.2160 c3         1 A8V       0.164600
      5 O           -5.5770    -2.7100    -0.7840 oh         1 A8V      -0.663000
      6 C3          -2.4150     0.8580     0.2140 ca         1 A8V      -0.073300
      7 C15         -1.1620     0.3090     0.4310 ca         1 A8V      -0.142000
      8 C7          -0.0080     0.9280    -0.0520 ca         1 A8V       0.150100
      9 C6          -0.1180     2.1200    -0.7650 ca         1 A8V      -0.198000
     10 C5          -1.3790     2.6640    -0.9810 ca         1 A8V      -0.071000
     11 C4          -2.5230     2.0510    -0.4990 ca         1 A8V      -0.137000
     12 O2           1.1550     0.3110     0.2260 os         1 A8V      -0.349100
     13 C8           2.3710     0.9120    -0.1860 c3         1 A8V       0.167600
     14 C9           3.5280     0.0450     0.2720 c6         1 A8V      -0.064700
     15 C14          3.5070    -1.3430    -0.3700 c6         1 A8V      -0.069900
     16 C13          4.7090    -2.1790     0.0600 c6         1 A8V      -0.072900
     17 C12          6.0230    -1.4650    -0.2350 c6         1 A8V      -0.075400
     18 C11          6.0500    -0.0790     0.4020 c6         1 A8V      -0.072900
     19 C10          4.8490     0.7550    -0.0300 c6         1 A8V      -0.069900
     20 H1          -5.1660     1.2810     0.3650 ho         1 A8V       0.441000
     21 H2          -3.3410    -0.4200     1.6310 h1         1 A8V       0.076700
     22 H3          -4.4420    -0.3650    -1.2110 hc         1 A8V       0.063200
     23 H4          -3.2740    -1.5220    -0.5920 hc         1 A8V       0.063200
     24 H5          -4.9090    -2.2690     1.1370 h1         1 A8V       0.021700
     25 H6          -6.1090    -1.1550     0.4850 h1         1 A8V       0.021700
     26 H7          -6.3090    -3.2410    -0.4600 ho         1 A8V       0.444000
     27 H8          -1.0640    -0.6140     0.9950 ha         1 A8V       0.125000
     28 H9           0.7530     2.6330    -1.1510 ha         1 A8V       0.117000
     29 H10         -1.4600     3.5910    -1.5350 ha         1 A8V       0.110000
     30 H11         -3.4870     2.5090    -0.6800 ha         1 A8V       0.112000
     31 H12          2.3940     1.0210    -1.2790 h1         1 A8V       0.034200
     32 H13          2.4610     1.9170     0.2470 h1         1 A8V       0.034200
     33 H14          3.4520    -0.0720     1.3610 hc         1 A8V       0.061700
     34 H15          2.5820    -1.8650    -0.1150 hc         1 A8V       0.042200
     35 H16          3.5130    -1.2280    -1.4600 hc         1 A8V       0.042200
     36 H17          4.6410    -2.3810     1.1350 hc         1 A8V       0.040200
     37 H18          4.6840    -3.1510    -0.4390 hc         1 A8V       0.040200
     38 H19          6.8670    -2.0610     0.1210 hc         1 A8V       0.038700
     39 H20          6.1480    -1.3660    -1.3190 hc         1 A8V       0.038700
     40 H21          6.0500    -0.1800     1.4920 hc         1 A8V       0.040200
     41 H22          6.9750     0.4390     0.1400 hc         1 A8V       0.040200
     42 H23          4.9170     0.9510    -1.1070 hc         1 A8V       0.042200
     43 H24          4.8710     1.7290     0.4660 hc         1 A8V       0.042200
@<TRIPOS>BOND
     1     1     2 1   
     2     1    20 1   
     3     2     3 1   
     4     2     6 1   
     5     2    21 1   
     6     3     4 1   
     7     3    22 1   
     8     3    23 1   
     9     4     5 1   
    10     4    24 1   
    11     4    25 1   
    12     5    26 1   
    13     6     7 ar  
    14     6    11 ar  
    15     7     8 ar  
    16     7    27 1   
    17     8     9 ar  
    18     8    12 1   
    19     9    10 ar  
    20     9    28 1   
    21    10    11 ar  
    22    10    29 1   
    23    11    30 1   
    24    12    13 1   
    25    13    14 1   
    26    13    31 1   
    27    13    32 1   
    28    14    15 1   
    29    14    19 1   
    30    14    33 1   
    31    15    16 1   
    32    15    34 1   
    33    15    35 1   
    34    16    17 1   
    35    16    36 1   
    36    16    37 1   
    37    17    18 1   
    38    17    38 1   
    39    17    39 1   
    40    18    19 1   
    41    18    40 1   
    42    18    41 1   
    43    19    42 1   
    44    19    43 1   
@<TRIPOS>SUBSTRUCTURE
     1 A8V         1 TEMP              0 ****  ****    0 ROOT
