@<TRIPOS>MOLECULE
A8W
   58    61     1     0     0
SMALL
No Charge or Current Charge


@<TRIPOS>ATOM
      1 C8          -1.5660     0.8840     0.4030 c6         1 A8W      -0.043700
      2 C5           1.3630     0.7110     0.4270 c2         1 A8W      -0.086400
      3 C6           0.7810     1.9100     0.2460 c2         1 A8W      -0.246200
      4 C2           2.8420    -1.8040    -0.0340 c6         1 A8W      -0.086400
      5 C4           2.8810     0.6090     0.6230 c6         1 A8W      -0.064200
      6 O           -7.1040    -0.5340     0.5020 o          1 A8W      -0.533100
      7 C1           1.3250    -1.7220    -0.3320 c6         1 A8W      -0.066400
      8 C10          0.5720    -0.6170     0.4890 c6         1 A8W       0.000200
      9 C11         -1.8060    -1.6820     0.0130 c6         1 A8W      -0.070400
     10 C12         -3.2320    -1.4610    -0.5680 c6         1 A8W      -0.064400
     11 C13         -3.9130    -0.2090     0.0550 c5         1 A8W      -0.033000
     12 C14         -2.9930     1.0200    -0.2060 c5         1 A8W      -0.061700
     13 C15         -3.8840     2.2080     0.2580 c5         1 A8W      -0.070400
     14 C16         -5.3160     1.7980    -0.2330 c5         1 A8W      -0.067400
     15 C17         -5.1530     0.3210    -0.7510 c5         1 A8W      -0.169700
     16 C18         -4.2170    -0.4990     1.5680 c3         1 A8W      -0.082100
     17 C19          0.5040    -1.0280     2.0020 c3         1 A8W      -0.077100
     18 C20         -6.4340    -0.5350    -0.5240 c          1 A8W       0.585100
     19 C3           3.5340    -0.4480    -0.2970 c6         1 A8W       0.237300
     20 C7          -0.7080     2.1290     0.0560 c6         1 A8W      -0.030200
     21 C9          -0.8760    -0.4200    -0.1320 c6         1 A8W      -0.047700
     22 O1           4.9300    -0.5600     0.0230 os         1 A8W      -0.602700
     23 O2           7.3210    -0.4370    -0.5040 o          1 A8W      -0.711867
     24 O3           5.7100    -1.2070    -2.2140 o          1 A8W      -0.711867
     25 O4           5.7400     1.1640    -1.5270 o          1 A8W      -0.711867
     26 S            6.0210    -0.2310    -1.1590 s6         1 A8W       1.498300
     27 C21         -6.8410    -1.4380    -1.6880 c3         1 A8W      -0.202100
     28 H3          -1.6540     0.8290     1.4940 hc         1 A8W       0.052700
     29 H18          1.3870     2.8180     0.2240 ha         1 A8W       0.179000
     30 H21          3.0160    -2.1280     1.0010 hc         1 A8W       0.051700
     31 H22          3.2940    -2.5730    -0.6750 hc         1 A8W       0.051700
     32 H24          3.3530     1.5830     0.4350 hc         1 A8W       0.064700
     33 H23          3.1020     0.3700     1.6710 hc         1 A8W       0.064700
     34 H20          1.1990    -1.5340    -1.4070 hc         1 A8W       0.032200
     35 H19          0.8810    -2.7080    -0.1440 hc         1 A8W       0.032200
     36 H14         -1.8940    -1.9860     1.0620 hc         1 A8W       0.041700
     37 H15         -1.3600    -2.5400    -0.5070 hc         1 A8W       0.041700
     38 H12         -3.1560    -1.3420    -1.6580 hc         1 A8W       0.034200
     39 H13         -3.8480    -2.3550    -0.4010 hc         1 A8W       0.034200
     40 H1          -2.8090     1.1220    -1.2840 hc         1 A8W       0.043700
     41 H11         -3.8550     2.3380     1.3460 hc         1 A8W       0.044200
     42 H10         -3.5590     3.1580    -0.1810 hc         1 A8W       0.044200
     43 H8          -6.0370     1.8810     0.5880 hc         1 A8W       0.047700
     44 H9          -5.6770     2.4570    -1.0310 hc         1 A8W       0.047700
     45 H           -4.9220     0.2990    -1.8230 hc         1 A8W       0.058700
     46 H31         -3.3070    -0.5990     2.1690 hc         1 A8W       0.036700
     47 H29         -4.8150     0.2890     2.0400 hc         1 A8W       0.036700
     48 H30         -4.7770    -1.4340     1.6860 hc         1 A8W       0.036700
     49 H28          1.4980    -1.0900     2.4570 hc         1 A8W       0.031033
     50 H27         -0.0650    -0.3080     2.5990 hc         1 A8W       0.031033
     51 H26          0.0460    -2.0130     2.1420 hc         1 A8W       0.031033
     52 H4           3.3890    -0.1590    -1.3500 h1         1 A8W       0.048700
     53 H17         -0.8770     2.4290    -0.9870 hc         1 A8W       0.036700
     54 H16         -1.0320     2.9780     0.6740 hc         1 A8W       0.036700
     55 H2          -0.7410    -0.2650    -1.2120 hc         1 A8W       0.048700
     56 H7          -7.0000    -0.8180    -2.5770 hc         1 A8W       0.058367
     57 H5          -5.9820    -2.0510    -1.9840 hc         1 A8W       0.058367
     58 H6          -7.7210    -2.0520    -1.4640 hc         1 A8W       0.058367
@<TRIPOS>BOND
     1     1    12 1   
     2     1    20 1   
     3     1    21 1   
     4     1    28 1   
     5     2     3 2   
     6     2     5 1   
     7     2     8 1   
     8     3    20 1   
     9     3    29 1   
    10     4     7 1   
    11     4    19 1   
    12     4    30 1   
    13     4    31 1   
    14     5    19 1   
    15     5    32 1   
    16     5    33 1   
    17     6    18 2   
    18     7     8 1   
    19     7    34 1   
    20     7    35 1   
    21     8    17 1   
    22     8    21 1   
    23     9    10 1   
    24     9    21 1   
    25     9    36 1   
    26     9    37 1   
    27    10    11 1   
    28    10    38 1   
    29    10    39 1   
    30    11    12 1   
    31    11    15 1   
    32    11    16 1   
    33    12    13 1   
    34    12    40 1   
    35    13    14 1   
    36    13    41 1   
    37    13    42 1   
    38    14    15 1   
    39    14    43 1   
    40    14    44 1   
    41    15    18 1   
    42    15    45 1   
    43    16    46 1   
    44    16    47 1   
    45    16    48 1   
    46    17    49 1   
    47    17    50 1   
    48    17    51 1   
    49    18    27 1   
    50    19    22 1   
    51    19    52 1   
    52    20    53 1   
    53    20    54 1   
    54    21    55 1   
    55    22    26 1   
    56    23    26 1   
    57    24    26 1   
    58    25    26 1   
    59    27    56 1   
    60    27    57 1   
    61    27    58 1   
@<TRIPOS>SUBSTRUCTURE
     1 A8W         1 TEMP              0 ****  ****    0 ROOT
