@<TRIPOS>MOLECULE
A8W
   58    61     1     0     0
SMALL
bcc


@<TRIPOS>ATOM
      1 C8          -1.5570     0.8800     0.3530 c6         1 A8W      -0.043700
      2 C5           1.3130     0.6550     0.4020 c2         1 A8W      -0.086400
      3 C6           0.7600     1.8510     0.2050 c2         1 A8W      -0.196200
      4 C2           2.7250    -1.8420    -0.1070 c6         1 A8W      -0.086400
      5 C4           2.7950     0.5350     0.6470 c6         1 A8W      -0.064200
      6 O           -7.1880    -0.1600     0.4570 o          1 A8W      -0.533100
      7 C1           1.2460    -1.6820    -0.4400 c6         1 A8W      -0.066400
      8 C10          0.5070    -0.6330     0.4180 c6         1 A8W       0.000200
      9 C11         -1.8090    -1.6190    -0.1090 c6         1 A8W      -0.070400
     10 C12         -3.2180    -1.3860    -0.6600 c6         1 A8W      -0.064400
     11 C13         -3.8680    -0.1710    -0.0070 c5         1 A8W      -0.033000
     12 C14         -2.9470     1.0340    -0.2410 c5         1 A8W      -0.061700
     13 C15         -3.7910     2.2370     0.1700 c5         1 A8W      -0.070400
     14 C16         -5.2280     1.8420    -0.2370 c5         1 A8W      -0.067400
     15 C17         -5.1580     0.3710    -0.6910 c5         1 A8W      -0.169700
     16 C18         -4.1280    -0.4320     1.4800 c3         1 A8W      -0.082100
     17 C19          0.4090    -1.1240     1.8720 c3         1 A8W      -0.077100
     18 C20         -6.3970    -0.4450    -0.4170 c          1 A8W       0.585100
     19 C3           3.4370    -0.5120    -0.2510 c6         1 A8W       0.214100
     20 C7          -0.7000     2.0960     0.0170 c6         1 A8W      -0.030200
     21 C9          -0.8940    -0.3900    -0.2020 c6         1 A8W      -0.047700
     22 O1           4.8110    -0.6780     0.1180 os         1 A8W      -0.579500
     23 O2           7.1720    -0.4450    -0.1730 o          1 A8W      -0.711867
     24 O3           5.7730    -0.8830    -2.1530 o          1 A8W      -0.711867
     25 O4           5.6990     1.3130    -1.0680 o          1 A8W      -0.711867
     26 S            5.9540    -0.1230    -0.9130 s6         1 A8W       1.498300
     27 C21         -6.6210    -1.6340    -1.3120 c3         1 A8W      -0.202100
     28 H3          -1.6390     0.8020     1.4440 hc         1 A8W       0.052700
     29 H18          1.4060     2.7250     0.1870 ha         1 A8W       0.129000
     30 H21          2.8540    -2.2190     0.9120 hc         1 A8W       0.051700
     31 H22          3.1740    -2.5790    -0.7770 hc         1 A8W       0.051700
     32 H24          3.2770     1.5030     0.4950 hc         1 A8W       0.064700
     33 H23          2.9800     0.2470     1.6890 hc         1 A8W       0.064700
     34 H20          1.1530    -1.3950    -1.4940 hc         1 A8W       0.032200
     35 H19          0.7540    -2.6510    -0.3430 hc         1 A8W       0.032200
     36 H14         -1.8870    -1.9530     0.9280 hc         1 A8W       0.041700
     37 H15         -1.3600    -2.4530    -0.6530 hc         1 A8W       0.041700
     38 H12         -3.1720    -1.2260    -1.7430 hc         1 A8W       0.034200
     39 H13         -3.8120    -2.2920    -0.5030 hc         1 A8W       0.034200
     40 H1          -2.8090     1.0990    -1.3320 hc         1 A8W       0.043700
     41 H11         -3.7230     2.4090     1.2470 hc         1 A8W       0.044200
     42 H10         -3.4630     3.1570    -0.3150 hc         1 A8W       0.044200
     43 H8          -5.9190     1.9560     0.5970 hc         1 A8W       0.047700
     44 H9          -5.6090     2.4690    -1.0450 hc         1 A8W       0.047700
     45 H           -4.9770     0.3260    -1.7720 hc         1 A8W       0.058700
     46 H31         -3.2090    -0.6500     2.0220 hc         1 A8W       0.036700
     47 H29         -4.5980     0.4170     1.9780 hc         1 A8W       0.036700
     48 H30         -4.7870    -1.2920     1.6170 hc         1 A8W       0.036700
     49 H28          1.3830    -1.1410     2.3610 hc         1 A8W       0.031033
     50 H27         -0.2350    -0.4750     2.4680 hc         1 A8W       0.031033
     51 H26          0.0100    -2.1380     1.9300 hc         1 A8W       0.031033
     52 H4           3.3560    -0.1860    -1.2950 h1         1 A8W       0.048700
     53 H17         -0.8850     2.4030    -1.0210 hc         1 A8W       0.036700
     54 H16         -1.0070     2.9540     0.6250 hc         1 A8W       0.036700
     55 H2          -0.7290    -0.1980    -1.2720 hc         1 A8W       0.048700
     56 H7          -7.1030    -1.2820    -2.2290 hc         1 A8W       0.058367
     57 H5          -5.6870    -2.1060    -1.6140 hc         1 A8W       0.058367
     58 H6          -7.2740    -2.3700    -0.8480 hc         1 A8W       0.058367
@<TRIPOS>BOND
     1     1    12 1   
     2     1    20 1   
     3     1    21 1   
     4     1    28 1   
     5     2     3 2   
     6     2     5 1   
     7     2     8 1   
     8     3    20 1   
     9     3    29 1   
    10     4     7 1   
    11     4    19 1   
    12     4    30 1   
    13     4    31 1   
    14     5    19 1   
    15     5    32 1   
    16     5    33 1   
    17     6    18 2   
    18     7     8 1   
    19     7    34 1   
    20     7    35 1   
    21     8    17 1   
    22     8    21 1   
    23     9    10 1   
    24     9    21 1   
    25     9    36 1   
    26     9    37 1   
    27    10    11 1   
    28    10    38 1   
    29    10    39 1   
    30    11    12 1   
    31    11    15 1   
    32    11    16 1   
    33    12    13 1   
    34    12    40 1   
    35    13    14 1   
    36    13    41 1   
    37    13    42 1   
    38    14    15 1   
    39    14    43 1   
    40    14    44 1   
    41    15    18 1   
    42    15    45 1   
    43    16    46 1   
    44    16    47 1   
    45    16    48 1   
    46    17    49 1   
    47    17    50 1   
    48    17    51 1   
    49    18    27 1   
    50    19    22 1   
    51    19    52 1   
    52    20    53 1   
    53    20    54 1   
    54    21    55 1   
    55    22    26 1   
    56    23    26 1   
    57    24    26 1   
    58    25    26 1   
    59    27    56 1   
    60    27    57 1   
    61    27    58 1   
@<TRIPOS>SUBSTRUCTURE
     1 A8W         1 TEMP              0 ****  ****    0 ROOT
