@<TRIPOS>MOLECULE
A8X
   49    52     1     0     0
SMALL
bcc


@<TRIPOS>ATOM
      1 F            4.9320    -3.6640    -0.5170 f          1 A8X      -0.134900
      2 C11         -0.3040     2.3700    -0.3020 c6         1 A8X       0.017800
      3 C12          0.8700     1.3980    -0.1750 c6         1 A8X       0.219500
      4 C16          4.6030    -2.4000    -0.2390 ca         1 A8X       0.187900
      5 C15          3.8050    -2.1450     0.8600 ca         1 A8X      -0.194500
      6 C14          3.4650    -0.8320     1.1430 ca         1 A8X      -0.007000
      7 C17          5.0770    -1.3940    -1.0630 ca         1 A8X      -0.194500
      8 C18          4.7330    -0.0850    -0.7770 ca         1 A8X      -0.007000
      9 C13          3.9280     0.1880     0.3230 ca         1 A8X      -0.327500
     10 S            3.4130     1.8560     0.6220 sy         1 A8X       1.307200
     11 O2           2.9540     1.9240     2.0000 o          1 A8X      -0.612300
     12 O3           4.4620     2.7480     0.1560 o          1 A8X      -0.612300
     13 N1           2.1180     2.1440    -0.3370 n7         1 A8X      -0.829100
     14 C19          0.7480     0.2470    -1.1770 c6         1 A8X      -0.099400
     15 C20         -0.4890    -0.6090    -0.9090 c6         1 A8X      -0.010200
     16 C3          -1.6580     0.2730    -0.6420 cc         1 A8X      -0.050300
     17 C4          -1.5860     1.6100    -0.3700 cd         1 A8X      -0.179400
     18 C5          -2.9260     2.0600    -0.1690 ca         1 A8X      -0.088800
     19 C10         -3.7600     0.9290    -0.3300 ca         1 A8X      -0.038200
     20 C9          -5.1440     1.0100    -0.1900 ca         1 A8X      -0.122000
     21 C8          -5.6870     2.2480     0.1080 ca         1 A8X      -0.133000
     22 C7          -4.8760     3.3810     0.2690 ca         1 A8X      -0.168000
     23 C6          -3.5030     3.2980     0.1330 ca         1 A8X      -0.094000
     24 N           -2.9660    -0.1450    -0.6290 na         1 A8X      -0.030400
     25 C2          -3.4270    -1.5150    -0.7420 c3         1 A8X       0.052300
     26 C1          -3.5310    -2.2110     0.6070 c3         1 A8X      -0.235400
     27 C           -4.0380    -3.6630     0.5340 c          1 A8X       0.932600
     28 O           -4.2320    -4.1450    -0.5990 o          1 A8X      -0.836300
     29 O1          -4.2040    -4.2380     1.6270 o          1 A8X      -0.836300
     30 H3           0.8550     0.9850     0.8380 h1         1 A8X       0.078700
     31 H4           3.4570    -2.9540     1.4890 ha         1 A8X       0.156000
     32 H5           2.8440    -0.6180     2.0020 ha         1 A8X       0.157500
     33 H6           5.7040    -1.6280    -1.9130 ha         1 A8X       0.156000
     34 H7           5.0980     0.7100    -1.4140 ha         1 A8X       0.157500
     35 H8           2.3740     2.3520    -1.2970 hn         1 A8X       0.427800
     36 H9           0.6980     0.6630    -2.1890 hc         1 A8X       0.040700
     37 H10          1.6360    -0.3850    -1.1380 hc         1 A8X       0.040700
     38 H11         -0.6700    -1.2630    -1.7660 hc         1 A8X       0.064700
     39 H12         -0.3130    -1.2730    -0.0560 hc         1 A8X       0.064700
     40 H13         -5.7790     0.1420    -0.3060 ha         1 A8X       0.146000
     41 H14         -6.7600     2.3410     0.2220 ha         1 A8X       0.118000
     42 H15         -5.3350     4.3330     0.5050 ha         1 A8X       0.113000
     43 H16         -2.8830     4.1770     0.2610 ha         1 A8X       0.119000
     44 H17         -4.3940    -1.5040    -1.2470 h1         1 A8X       0.062200
     45 H18         -2.7460    -2.0510    -1.4010 h1         1 A8X       0.062200
     46 H19         -2.5510    -2.2100     1.0970 hc         1 A8X       0.032200
     47 H20         -4.1870    -1.6390     1.2700 hc         1 A8X       0.032200
     48 H1          -0.2960     3.0550     0.5500 hc         1 A8X       0.048200
     49 H2          -0.1670     2.9920    -1.1950 hc         1 A8X       0.048200
@<TRIPOS>BOND
     1     1     4 1   
     2     2     3 1   
     3     2    17 1   
     4     2    48 1   
     5     2    49 1   
     6     3    13 1   
     7     3    14 1   
     8     3    30 1   
     9     4     5 ar  
    10     4     7 ar  
    11     5     6 ar  
    12     5    31 1   
    13     6     9 ar  
    14     6    32 1   
    15     7     8 ar  
    16     7    33 1   
    17     8     9 ar  
    18     8    34 1   
    19     9    10 1   
    20    10    11 2   
    21    10    12 2   
    22    10    13 1   
    23    13    35 1   
    24    14    15 1   
    25    14    36 1   
    26    14    37 1   
    27    15    16 1   
    28    15    38 1   
    29    15    39 1   
    30    16    17 2   
    31    16    24 1   
    32    17    18 1   
    33    18    19 ar  
    34    18    23 ar  
    35    19    20 ar  
    36    19    24 1   
    37    20    21 ar  
    38    20    40 1   
    39    21    22 ar  
    40    21    41 1   
    41    22    23 ar  
    42    22    42 1   
    43    23    43 1   
    44    24    25 1   
    45    25    26 1   
    46    25    44 1   
    47    25    45 1   
    48    26    27 1   
    49    26    46 1   
    50    26    47 1   
    51    27    28 1   
    52    27    29 1   
@<TRIPOS>SUBSTRUCTURE
     1 A8X         1 TEMP              0 ****  ****    0 ROOT
