@<TRIPOS>MOLECULE
A8X
   49    52     1     0     0
SMALL
No Charge or Current Charge


@<TRIPOS>ATOM
      1 F            4.3940    -3.7680     0.0030 f          1 A8X      -0.170000
      2 C11         -0.2630     2.4070    -0.4230 c6         1 A8X       0.017800
      3 C12          1.0030     1.5030    -0.4080 c6         1 A8X       0.219500
      4 C16          4.1880    -2.4360     0.1020 ca         1 A8X       0.223000
      5 C15          3.4110    -1.9290     1.1530 ca         1 A8X      -0.176500
      6 C14          3.1950    -0.5450     1.2610 ca         1 A8X       0.011000
      7 C17          4.7570    -1.5710    -0.8430 ca         1 A8X      -0.176500
      8 C18          4.5450    -0.1860    -0.7450 ca         1 A8X       0.011000
      9 C13          3.7550     0.3300     0.3050 ca         1 A8X      -0.327500
     10 S            3.4660     2.1000     0.4190 sy         1 A8X       1.165600
     11 O2           2.9280     2.4550     1.7350 o          1 A8X      -0.541500
     12 O3           4.5910     2.8240    -0.1740 o          1 A8X      -0.541500
     13 N1           2.2130     2.3160    -0.6670 n7         1 A8X      -0.884300
     14 C19          0.8600     0.3640    -1.4570 c6         1 A8X      -0.099400
     15 C20         -0.3280    -0.5740    -1.1190 c6         1 A8X      -0.010200
     16 C3          -1.5360     0.2370    -0.7170 cc         1 A8X      -0.050300
     17 C4          -1.5360     1.5840    -0.3830 cd         1 A8X      -0.179400
     18 C5          -2.8740     1.9900    -0.0240 ca         1 A8X      -0.088800
     19 C10         -3.6620     0.8740    -0.1420 ca         1 A8X      -0.038200
     20 C9          -5.0360     0.9220     0.1490 ca         1 A8X      -0.104000
     21 C8          -5.5830     2.1570     0.5610 ca         1 A8X      -0.115000
     22 C7          -4.7620     3.3050     0.6760 ca         1 A8X      -0.150000
     23 C6          -3.3840     3.2290     0.3820 ca         1 A8X      -0.076000
     24 N           -2.8690    -0.1900    -0.5600 na         1 A8X      -0.059700
     25 C2          -3.4060    -1.5460    -0.7700 c3         1 A8X       0.081600
     26 C1          -3.4210    -2.3960     0.5170 c3         1 A8X      -0.235400
     27 C           -3.9910    -3.7770     0.1900 c          1 A8X       0.722000
     28 O           -3.2160    -4.6420    -0.1870 o          1 A8X      -0.731000
     29 O1          -5.2000    -3.9310     0.2620 o          1 A8X      -0.731000
     30 H3           1.0470     1.0430     0.5920 h1         1 A8X       0.078700
     31 H4           2.9790    -2.6080     1.8830 ha         1 A8X       0.138000
     32 H5           2.5910    -0.1610     2.0830 ha         1 A8X       0.139500
     33 H6           5.3610    -1.9750    -1.6510 ha         1 A8X       0.138000
     34 H7           4.9920     0.4780    -1.4850 ha         1 A8X       0.139500
     35 H8           2.6510     1.9830    -1.5220 hn         1 A8X       0.483000
     36 H9           0.7050     0.8020    -2.4530 hc         1 A8X       0.040700
     37 H10          1.7780    -0.2330    -1.5220 hc         1 A8X       0.040700
     38 H11         -0.5490    -1.2170    -1.9810 hc         1 A8X       0.064700
     39 H12         -0.0410    -1.2460    -0.2980 hc         1 A8X       0.064700
     40 H13         -5.6650     0.0390     0.0640 ha         1 A8X       0.128000
     41 H14         -6.6440     2.2260     0.7930 ha         1 A8X       0.100000
     42 H15         -5.1950     4.2500     0.9950 ha         1 A8X       0.095000
     43 H16         -2.7410     4.1020     0.4690 ha         1 A8X       0.101000
     44 H17         -4.4220    -1.4690    -1.1770 h1         1 A8X       0.062200
     45 H18         -2.7930    -2.0490    -1.5290 h1         1 A8X       0.062200
     46 H19         -2.3770    -2.4730     0.8420 hc         1 A8X       0.032200
     47 H20         -4.0700    -1.8660     1.2250 hc         1 A8X       0.032200
     48 H1          -0.2270     3.0990     0.4290 hc         1 A8X       0.048200
     49 H2          -0.2600     3.0310    -1.3270 hc         1 A8X       0.048200
@<TRIPOS>BOND
     1     1     4 1   
     2     2     3 1   
     3     2    17 1   
     4     2    48 1   
     5     2    49 1   
     6     3    13 1   
     7     3    14 1   
     8     3    30 1   
     9     4     5 ar  
    10     4     7 ar  
    11     5     6 ar  
    12     5    31 1   
    13     6     9 ar  
    14     6    32 1   
    15     7     8 ar  
    16     7    33 1   
    17     8     9 ar  
    18     8    34 1   
    19     9    10 1   
    20    10    11 2   
    21    10    12 2   
    22    10    13 1   
    23    13    35 1   
    24    14    15 1   
    25    14    36 1   
    26    14    37 1   
    27    15    16 1   
    28    15    38 1   
    29    15    39 1   
    30    16    17 2   
    31    16    24 1   
    32    17    18 1   
    33    18    19 ar  
    34    18    23 ar  
    35    19    20 ar  
    36    19    24 1   
    37    20    21 ar  
    38    20    40 1   
    39    21    22 ar  
    40    21    41 1   
    41    22    23 ar  
    42    22    42 1   
    43    23    43 1   
    44    24    25 1   
    45    25    26 1   
    46    25    44 1   
    47    25    45 1   
    48    26    27 1   
    49    26    46 1   
    50    26    47 1   
    51    27    28 1   
    52    27    29 1   
@<TRIPOS>SUBSTRUCTURE
     1 A8X         1 TEMP              0 ****  ****    0 ROOT
