@<TRIPOS>MOLECULE
A8Z
   58    61     1     0     0
SMALL
No Charge or Current Charge


@<TRIPOS>ATOM
      1 C2           4.6030    -1.8890     0.0920 c6         1 A8Z      -0.110400
      2 C5           3.2430     0.7590    -0.1040 c6         1 A8Z      -0.054700
      3 C4           4.7620     0.6610     0.2320 c6         1 A8Z      -0.063400
      4 C6           2.6370     2.1030     0.3790 c6         1 A8Z      -0.069400
      5 C7           1.1790     2.2510    -0.1120 c6         1 A8Z      -0.069400
      6 C8           0.2920     1.0510     0.3220 c6         1 A8Z      -0.043700
      7 C9           0.9330    -0.3200    -0.1240 c6         1 A8Z      -0.048700
      8 C1           3.0810    -1.7670    -0.2140 c6         1 A8Z      -0.063400
      9 C10          2.4190    -0.4860     0.4070 c6         1 A8Z      -0.028000
     10 C11         -0.0140    -1.5280     0.2180 c6         1 A8Z      -0.070400
     11 C12         -1.4550    -1.3370    -0.3410 c6         1 A8Z      -0.065400
     12 C13         -2.0870     0.0010     0.1420 c5         1 A8Z      -0.034000
     13 C14         -1.1420     1.1690    -0.2720 c5         1 A8Z      -0.063700
     14 C15         -1.9940     2.4230     0.0770 c5         1 A8Z      -0.070400
     15 C16         -3.4450     2.0000    -0.3420 c5         1 A8Z      -0.066400
     16 C17         -3.3290     0.4710    -0.6970 c5         1 A8Z      -0.168700
     17 C18         -2.3710    -0.1110     1.6830 c3         1 A8Z      -0.084100
     18 C19          2.4450    -0.6090     1.9780 c3         1 A8Z      -0.082100
     19 C20         -4.6270    -0.3230    -0.3600 c          1 A8Z       0.576100
     20 C3           5.4020    -0.6330    -0.3370 c6         1 A8Z       0.173300
     21 O2           5.4880    -0.5640    -1.7650 oh         1 A8Z      -0.663000
     22 C21         -5.0400    -1.3800    -1.4300 c3         1 A8Z       0.053600
     23 H11          4.7560    -2.0680     1.1640 hc         1 A8Z       0.041700
     24 H12          5.0080    -2.7780    -0.4100 hc         1 A8Z       0.041700
     25 H14          5.2900     1.5330    -0.1780 hc         1 A8Z       0.047700
     26 H13          4.9200     0.7060     1.3170 hc         1 A8Z       0.047700
     27 H15          2.6800     2.1810     1.4730 hc         1 A8Z       0.039700
     28 H16          3.2310     2.9410    -0.0100 hc         1 A8Z       0.039700
     29 H18          0.7620     3.1890     0.2790 hc         1 A8Z       0.039200
     30 H17          1.1720     2.3430    -1.2070 hc         1 A8Z       0.039200
     31 H2           0.2080     1.0810     1.4150 hc         1 A8Z       0.052700
     32 H3           0.9940    -0.2910    -1.2220 hc         1 A8Z       0.043700
     33 H9           2.9340    -1.7700    -1.3030 hc         1 A8Z       0.041200
     34 H10          2.5870    -2.6730     0.1600 hc         1 A8Z       0.041200
     35 H19          0.3860    -2.4550    -0.2090 hc         1 A8Z       0.041200
     36 H20         -0.0600    -1.6930     1.3000 hc         1 A8Z       0.041200
     37 H21         -1.4120    -1.3530    -1.4390 hc         1 A8Z       0.038200
     38 H22         -2.0860    -2.1870    -0.0490 hc         1 A8Z       0.038200
     39 H4          -0.9750     1.1530    -1.3580 hc         1 A8Z       0.042700
     40 H23         -1.9380     2.6700     1.1430 hc         1 A8Z       0.045700
     41 H24         -1.6560     3.3110    -0.4690 hc         1 A8Z       0.045700
     42 H26         -4.1460     2.1930     0.4780 hc         1 A8Z       0.053700
     43 H25         -3.8050     2.5780    -1.2010 hc         1 A8Z       0.053700
     44 H5          -3.1180     0.3260    -1.7640 hc         1 A8Z       0.055700
     45 H31         -1.4540    -0.1870     2.2760 hc         1 A8Z       0.040367
     46 H30         -2.9270     0.7460     2.0770 hc         1 A8Z       0.040367
     47 H32         -2.9650    -1.0040     1.9110 hc         1 A8Z       0.040367
     48 H8           1.9380     0.2200     2.4810 hc         1 A8Z       0.031700
     49 H6           1.9620    -1.5320     2.3170 hc         1 A8Z       0.031700
     50 H7           3.4610    -0.6350     2.3830 hc         1 A8Z       0.031700
     51 H            6.4190    -0.7180     0.0750 h1         1 A8Z       0.029700
     52 H29         -6.3670    -2.8030    -1.8130 ho         1 A8Z       0.443000
     53 H33          5.8920    -1.4080    -2.0610 ho         1 A8Z       0.438000
     54 H28         -5.2270    -0.8380    -2.3660 h1         1 A8Z       0.034700
     55 H27         -4.1700    -2.0280    -1.6000 h1         1 A8Z       0.034700
     56 H1           3.1730     0.7690    -1.2020 hc         1 A8Z       0.060700
     57 O           -5.2740    -0.1740     0.6750 o          1 A8Z      -0.487100
     58 O1          -6.1970    -2.1780    -1.0730 oh         1 A8Z      -0.628000
@<TRIPOS>BOND
     1     1     8 1   
     2     1    20 1   
     3     1    23 1   
     4     1    24 1   
     5     2     3 1   
     6     2     4 1   
     7     2     9 1   
     8     2    56 1   
     9     3    20 1   
    10     3    25 1   
    11     3    26 1   
    12     4     5 1   
    13     4    27 1   
    14     4    28 1   
    15     5     6 1   
    16     5    29 1   
    17     5    30 1   
    18     6     7 1   
    19     6    13 1   
    20     6    31 1   
    21     7     9 1   
    22     7    10 1   
    23     7    32 1   
    24     8     9 1   
    25     8    33 1   
    26     8    34 1   
    27     9    18 1   
    28    10    11 1   
    29    10    35 1   
    30    10    36 1   
    31    11    12 1   
    32    11    37 1   
    33    11    38 1   
    34    12    13 1   
    35    12    16 1   
    36    12    17 1   
    37    13    14 1   
    38    13    39 1   
    39    14    15 1   
    40    14    40 1   
    41    14    41 1   
    42    15    16 1   
    43    15    42 1   
    44    15    43 1   
    45    16    19 1   
    46    16    44 1   
    47    17    45 1   
    48    17    46 1   
    49    17    47 1   
    50    18    48 1   
    51    18    49 1   
    52    18    50 1   
    53    19    22 1   
    54    19    57 2   
    55    20    21 1   
    56    20    51 1   
    57    21    53 1   
    58    22    54 1   
    59    22    55 1   
    60    22    58 1   
    61    52    58 1   
@<TRIPOS>SUBSTRUCTURE
     1 A8Z         1 TEMP              0 ****  ****    0 ROOT
