@<TRIPOS>MOLECULE
A8Z
   58    61     1     0     0
SMALL
abcg2


@<TRIPOS>ATOM
      1 C2           4.4860    -1.8710     0.0160 c6         1 A8Z      -0.110400
      2 C5           3.1840     0.7440    -0.0460 c6         1 A8Z      -0.054700
      3 C4           4.6730     0.6100     0.2620 c6         1 A8Z      -0.063400
      4 C6           2.6040     2.0460     0.4900 c6         1 A8Z      -0.069400
      5 C7           1.1660     2.2300     0.0280 c6         1 A8Z      -0.069400
      6 C8           0.2840     1.0330     0.3760 c6         1 A8Z      -0.043700
      7 C9           0.9130    -0.2940    -0.0980 c6         1 A8Z      -0.048700
      8 C1           2.9940    -1.7230    -0.2710 c6         1 A8Z      -0.063400
      9 C10          2.3660    -0.4900     0.4030 c6         1 A8Z      -0.028000
     10 C11         -0.0150    -1.4730     0.2150 c6         1 A8Z      -0.070400
     11 C12         -1.4240    -1.3020    -0.3570 c6         1 A8Z      -0.065400
     12 C13         -2.0520     0.0100     0.0980 c5         1 A8Z      -0.034000
     13 C14         -1.0920     1.1560    -0.2620 c5         1 A8Z      -0.063700
     14 C15         -1.9220     2.4150    -0.0260 c5         1 A8Z      -0.070400
     15 C16         -3.3560     2.0000    -0.4280 c5         1 A8Z      -0.066400
     16 C17         -3.2960     0.4850    -0.7070 c5         1 A8Z      -0.168700
     17 C18         -2.3760    -0.0380     1.5950 c3         1 A8Z      -0.084100
     18 C19          2.3940    -0.6800     1.9250 c3         1 A8Z      -0.082100
     19 C20         -4.5660    -0.2680    -0.4100 c          1 A8Z       0.576100
     20 C3           5.2890    -0.6320    -0.3650 c6         1 A8Z       0.173300
     21 O2           5.3150    -0.4330    -1.7700 oh         1 A8Z      -0.663000
     22 C21         -4.8040    -1.4710    -1.2880 c3         1 A8Z       0.053600
     23 H11          4.6480    -2.0710     1.0790 hc         1 A8Z       0.041700
     24 H12          4.8820    -2.7470    -0.5090 hc         1 A8Z       0.041700
     25 H14          5.2010     1.5000    -0.0960 hc         1 A8Z       0.047700
     26 H13          4.8410     0.5770     1.3430 hc         1 A8Z       0.047700
     27 H15          2.6590     2.0670     1.5840 hc         1 A8Z       0.039700
     28 H16          3.2120     2.8860     0.1400 hc         1 A8Z       0.039700
     29 H18          0.7430     3.1400     0.4620 hc         1 A8Z       0.039200
     30 H17          1.1570     2.3750    -1.0590 hc         1 A8Z       0.039200
     31 H2           0.1700     1.0080     1.4670 hc         1 A8Z       0.052700
     32 H3           0.9830    -0.2230    -1.1950 hc         1 A8Z       0.043700
     33 H9           2.8360    -1.6550    -1.3530 hc         1 A8Z       0.041200
     34 H10          2.4860    -2.6350     0.0530 hc         1 A8Z       0.041200
     35 H19          0.4050    -2.3990    -0.1830 hc         1 A8Z       0.041200
     36 H20         -0.0800    -1.6160     1.2970 hc         1 A8Z       0.041200
     37 H21         -1.3750    -1.3160    -1.4530 hc         1 A8Z       0.038200
     38 H22         -2.0360    -2.1600    -0.0590 hc         1 A8Z       0.038200
     39 H4          -0.9280     1.0790    -1.3480 hc         1 A8Z       0.042700
     40 H23         -1.8810     2.7170     1.0240 hc         1 A8Z       0.045700
     41 H24         -1.5620     3.2640    -0.6090 hc         1 A8Z       0.045700
     42 H26         -4.0670     2.2180     0.3680 hc         1 A8Z       0.053700
     43 H25         -3.7020     2.5340    -1.3130 hc         1 A8Z       0.053700
     44 H5          -3.0590     0.3210    -1.7650 hc         1 A8Z       0.055700
     45 H31         -1.4780    -0.1440     2.2020 hc         1 A8Z       0.040367
     46 H30         -2.8890     0.8590     1.9410 hc         1 A8Z       0.040367
     47 H32         -3.0180    -0.8890     1.8280 hc         1 A8Z       0.040367
     48 H8           1.8470     0.1000     2.4550 hc         1 A8Z       0.031700
     49 H6           1.9460    -1.6350     2.2010 hc         1 A8Z       0.031700
     50 H7           3.4090    -0.6840     2.3230 hc         1 A8Z       0.031700
     51 H            6.3160    -0.7510     0.0120 h1         1 A8Z       0.029700
     52 H29         -6.0720    -2.9040    -1.4660 ho         1 A8Z       0.443000
     53 H33          5.5940    -1.2560    -2.1830 ho         1 A8Z       0.438000
     54 H28         -4.9060    -1.0910    -2.3160 h1         1 A8Z       0.034700
     55 H27         -3.8870    -2.0790    -1.2900 h1         1 A8Z       0.034700
     56 H1           3.0880     0.7880    -1.1400 hc         1 A8Z       0.060700
     57 O           -5.3510     0.0510     0.4530 o          1 A8Z      -0.487100
     58 O1          -5.9260    -2.1770    -0.8540 oh         1 A8Z      -0.628000
@<TRIPOS>BOND
     1     1     8 1   
     2     1    20 1   
     3     1    23 1   
     4     1    24 1   
     5     2     3 1   
     6     2     4 1   
     7     2     9 1   
     8     2    56 1   
     9     3    20 1   
    10     3    25 1   
    11     3    26 1   
    12     4     5 1   
    13     4    27 1   
    14     4    28 1   
    15     5     6 1   
    16     5    29 1   
    17     5    30 1   
    18     6     7 1   
    19     6    13 1   
    20     6    31 1   
    21     7     9 1   
    22     7    10 1   
    23     7    32 1   
    24     8     9 1   
    25     8    33 1   
    26     8    34 1   
    27     9    18 1   
    28    10    11 1   
    29    10    35 1   
    30    10    36 1   
    31    11    12 1   
    32    11    37 1   
    33    11    38 1   
    34    12    13 1   
    35    12    16 1   
    36    12    17 1   
    37    13    14 1   
    38    13    39 1   
    39    14    15 1   
    40    14    40 1   
    41    14    41 1   
    42    15    16 1   
    43    15    42 1   
    44    15    43 1   
    45    16    19 1   
    46    16    44 1   
    47    17    45 1   
    48    17    46 1   
    49    17    47 1   
    50    18    48 1   
    51    18    49 1   
    52    18    50 1   
    53    19    22 1   
    54    19    57 2   
    55    20    21 1   
    56    20    51 1   
    57    21    53 1   
    58    22    54 1   
    59    22    55 1   
    60    22    58 1   
    61    52    58 1   
@<TRIPOS>SUBSTRUCTURE
     1 A8Z         1 TEMP              0 ****  ****    0 ROOT
