@<TRIPOS>MOLECULE
A90
   38    39     1     0     0
SMALL
abcg2


@<TRIPOS>ATOM
      1 C4           3.0640     1.3830    -0.6410 ca         1 A90      -0.106500
      2 C14          5.5210    -1.5110    -0.7190 c3         1 A90      -0.195100
      3 C5           2.2410     1.0550     0.4320 ca         1 A90      -0.141300
      4 C6           1.0800     1.9270     0.8200 c3         1 A90      -0.015100
      5 C11         -4.1870    -2.0290    -0.0010 ca         1 A90       0.165000
      6 C7          -0.2130     1.4390     0.1720 c3         1 A90       0.193800
      7 C8          -3.3390     0.5790    -0.1550 ca         1 A90      -0.307500
      8 C9          -2.9780    -0.3170    -1.1530 ca         1 A90      -0.006000
      9 C10         -3.4040    -1.6330    -1.0750 ca         1 A90      -0.126500
     10 C12         -4.5520    -1.1360     0.9970 ca         1 A90      -0.126500
     11 C13         -4.1230     0.1780     0.9180 ca         1 A90      -0.006000
     12 C3           4.1130     0.5530    -1.0140 ca         1 A90      -0.113500
     13 O2           7.8060    -1.9410    -0.2740 o          1 A90      -0.724000
     14 C15          6.8400    -1.2180     0.0420 c          1 A90       0.725000
     15 O3           6.8300    -0.3090     0.8900 o          1 A90      -0.724000
     16 C2           4.3760    -0.6320    -0.3330 ca         1 A90       0.023700
     17 C1           3.5460    -0.9590     0.7370 ca         1 A90      -0.113500
     18 C            2.4980    -0.1320     1.1140 ca         1 A90      -0.106500
     19 N           -1.3250     2.2740     0.6150 n7         1 A90      -0.859300
     20 S           -2.7410     2.2480    -0.2170 sy         1 A90       1.148600
     21 O           -2.4310     2.5510    -1.6040 o          1 A90      -0.539000
     22 O1          -3.6630     3.0890     0.5280 o          1 A90      -0.539000
     23 H1           2.8890     2.3010    -1.1900 ha         1 A90       0.089000
     24 H2           5.7200    -1.4210    -1.7910 hc         1 A90       0.032700
     25 H3           5.2640    -2.5620    -0.5520 hc         1 A90       0.032700
     26 H4           0.9590     1.9210     1.9070 hc         1 A90       0.047200
     27 H5           1.2590     2.9620     0.5220 hc         1 A90       0.047200
     28 H6          -0.1270     1.5160    -0.9120 h1         1 A90       0.054200
     29 H7          -0.3790     0.3840     0.4170 h1         1 A90       0.054200
     30 H8          -2.3750    -0.0060    -1.9950 ha         1 A90       0.140500
     31 H9          -3.1290    -2.3380    -1.8470 ha         1 A90       0.133000
     32 H10         -5.1670    -1.4560     1.8260 ha         1 A90       0.133000
     33 H11         -4.4120     0.8750     1.6930 ha         1 A90       0.140500
     34 H12          4.7380     0.8360    -1.8540 ha         1 A90       0.109000
     35 H14          3.7200    -1.8770     1.2870 ha         1 A90       0.109000
     36 H15          1.8730    -0.4130     1.9550 ha         1 A90       0.089000
     37 H16         -1.4840     2.2430     1.6170 hn         1 A90       0.477000
     38 CL          -4.7240    -3.6670     0.0940 cl         1 A90      -0.195000
@<TRIPOS>BOND
     1     1     3 ar  
     2     1    12 ar  
     3     1    23 1   
     4     2    14 1   
     5     2    16 1   
     6     2    24 1   
     7     2    25 1   
     8     3     4 1   
     9     3    18 ar  
    10     4     6 1   
    11     4    26 1   
    12     4    27 1   
    13     5     9 ar  
    14     5    10 ar  
    15     5    38 1   
    16     6    19 1   
    17     6    28 1   
    18     6    29 1   
    19     7     8 ar  
    20     7    11 ar  
    21     7    20 1   
    22     8     9 ar  
    23     8    30 1   
    24     9    31 1   
    25    10    11 ar  
    26    10    32 1   
    27    11    33 1   
    28    12    16 ar  
    29    12    34 1   
    30    13    14 1   
    31    14    15 1   
    32    16    17 ar  
    33    17    18 ar  
    34    17    35 1   
    35    18    36 1   
    36    19    20 1   
    37    19    37 1   
    38    20    21 2   
    39    20    22 2   
@<TRIPOS>SUBSTRUCTURE
     1 A90         1 TEMP              0 ****  ****    0 ROOT
