@<TRIPOS>MOLECULE
A90
   38    39     1     0     0
SMALL
No Charge or Current Charge


@<TRIPOS>ATOM
      1 C4           2.3340     0.2350    -0.8240 ca         1 A90      -0.106500
      2 C14          5.2200    -1.9030     0.5380 c3         1 A90      -0.195100
      3 C5           2.0800     1.1010     0.2550 ca         1 A90      -0.141300
      4 C6           0.9730     2.1440     0.1570 c3         1 A90      -0.015100
      5 C11         -3.3940    -1.9380    -1.4120 ca         1 A90       0.165000
      6 C7          -0.4170     1.5390     0.4360 c3         1 A90       0.193800
      7 C8          -3.1840     0.5500    -0.1200 ca         1 A90      -0.307500
      8 C9          -3.3730     0.4930    -1.5170 ca         1 A90      -0.006000
      9 C10         -3.4780    -0.7530    -2.1590 ca         1 A90      -0.126500
     10 C12         -3.2050    -1.8850    -0.0220 ca         1 A90      -0.126500
     11 C13         -3.0990    -0.6440     0.6280 ca         1 A90      -0.006000
     12 C3           3.3490    -0.7330    -0.7330 ca         1 A90      -0.113500
     13 O2           6.7880    -1.3690    -1.1560 o          1 A90      -0.724000
     14 C15          6.5450    -1.3090     0.0410 c          1 A90       0.725000
     15 O3           7.2420    -0.7060     0.8430 o          1 A90      -0.724000
     16 C2           4.1220    -0.8490     0.4380 ca         1 A90       0.023700
     17 C1           3.8650     0.0180     1.5180 ca         1 A90      -0.113500
     18 C            2.8500     0.9870     1.4280 ca         1 A90      -0.106500
     19 N           -1.4630     2.5720     0.3140 n7         1 A90      -0.859300
     20 S           -3.0310     2.1490     0.6950 sy         1 A90       1.148600
     21 O           -3.8710     3.1220    -0.0060 o          1 A90      -0.539000
     22 O1          -3.0560     1.9840     2.1490 o          1 A90      -0.539000
     23 H1           1.7450     0.3110    -1.7360 ha         1 A90       0.089000
     24 H2           4.9190    -2.7430    -0.0990 hc         1 A90       0.032700
     25 H3           5.3040    -2.1810     1.5960 hc         1 A90       0.032700
     26 H4           1.1580     2.9640     0.8620 hc         1 A90       0.047200
     27 H5           0.9710     2.5930    -0.8440 hc         1 A90       0.047200
     28 H6          -0.5850     0.7250    -0.2820 h1         1 A90       0.054200
     29 H7          -0.4150     1.1000     1.4440 h1         1 A90       0.054200
     30 H8          -3.4320     1.4080    -2.1050 ha         1 A90       0.140500
     31 H9          -3.6230    -0.7990    -3.2350 ha         1 A90       0.133000
     32 H10         -3.1390    -2.8060     0.5510 ha         1 A90       0.133000
     33 H11         -2.9480    -0.6160     1.7060 ha         1 A90       0.140500
     34 H12          3.5360    -1.3940    -1.5760 ha         1 A90       0.109000
     35 H14          4.4530    -0.0580     2.4290 ha         1 A90       0.109000
     36 H15          2.6640     1.6460     2.2720 ha         1 A90       0.089000
     37 H16         -1.2970     3.3000     1.0060 hn         1 A90       0.477000
     38 Cl          -3.5240    -3.4950    -2.2210 cl         1 A90      -0.195000
@<TRIPOS>BOND
     1     1     3 ar  
     2     1    12 ar  
     3     1    23 1   
     4     2    14 1   
     5     2    16 1   
     6     2    24 1   
     7     2    25 1   
     8     3     4 1   
     9     3    18 ar  
    10     4     6 1   
    11     4    26 1   
    12     4    27 1   
    13     5     9 ar  
    14     5    10 ar  
    15     5    38 1   
    16     6    19 1   
    17     6    28 1   
    18     6    29 1   
    19     7     8 ar  
    20     7    11 ar  
    21     7    20 1   
    22     8     9 ar  
    23     8    30 1   
    24     9    31 1   
    25    10    11 ar  
    26    10    32 1   
    27    11    33 1   
    28    12    16 ar  
    29    12    34 1   
    30    13    14 1   
    31    14    15 1   
    32    16    17 ar  
    33    17    18 ar  
    34    17    35 1   
    35    18    36 1   
    36    19    20 1   
    37    19    37 1   
    38    20    21 2   
    39    20    22 2   
@<TRIPOS>SUBSTRUCTURE
     1 A90         1 TEMP              0 ****  ****    0 ROOT
