@<TRIPOS>MOLECULE
A91
   39    41     1     0     0
SMALL
No Charge or Current Charge


@<TRIPOS>ATOM
      1 C1           0.1710    -0.4810     2.8970 cc         1 A91      -0.149900
      2 C2          -1.1030    -0.1200     2.5110 cd         1 A91      -0.112400
      3 N3          -1.4560    -0.8990     1.4410 n          1 A91      -0.202400
      4 C4          -0.4180    -1.7840     1.1060 c          1 A91       0.641100
      5 O5           0.5520    -1.4890     2.0310 os         1 A91      -0.282200
      6 O6          -0.3770    -2.6240     0.2150 o          1 A91      -0.539000
      7 N7          -2.7150    -0.7970     0.7770 nu         1 A91      -0.582400
      8 C8          -2.6890    -0.1280    -0.5360 c3         1 A91       0.181100
      9 C9          -2.6300     1.3950    -0.3830 ca         1 A91      -0.064300
     10 C10         -1.4110     2.1210    -0.4410 ca         1 A91       0.040000
     11 C11         -1.4220     3.5210    -0.2930 ca         1 A91      -0.089000
     12 C12         -2.6300     4.2070    -0.0880 ca         1 A91      -0.106000
     13 C13         -3.8370     3.4950    -0.0290 ca         1 A91      -0.098000
     14 C14         -3.8360     2.0980    -0.1750 ca         1 A91      -0.103000
     15 C15         -0.1490     1.4630    -0.6380 cg         1 A91      -0.049000
     16 C16          0.9140     0.8820    -0.7890 ch         1 A91      -0.230000
     17 C17          2.1410     0.1780    -0.9380 ca         1 A91       0.299000
     18 C18          2.9860    -0.0400     0.1620 ca         1 A91      -0.261000
     19 C19          4.1740    -0.7550    -0.0610 ca         1 A91       0.175300
     20 N20          4.4890    -1.2150    -1.2880 nb         1 A91      -0.253000
     21 C21          3.6090    -0.9490    -2.2650 ca         1 A91       0.384900
     22 N22          2.4530    -0.2800    -2.1650 nb         1 A91      -0.259000
     23 C23          5.1480    -1.0510     1.0640 c3         1 A91      -0.152400
     24 N24          3.9290    -1.4090    -3.4990 nv         1 A91      -1.056900
     25 H1           0.8510    -0.1460     3.6780 h4         1 A91       0.248000
     26 H2          -1.7950     0.6270     2.8930 h4         1 A91       0.276000
     27 HN7         -3.3130    -1.6210     0.8990 hn         1 A91       0.445000
     28 H81         -1.8450    -0.4930    -1.1360 h1         1 A91       0.061200
     29 H82         -3.5990    -0.3900    -1.0930 h1         1 A91       0.061200
     30 H11         -0.4890     4.0810    -0.3350 ha         1 A91       0.122000
     31 H12         -2.6300     5.2890     0.0250 ha         1 A91       0.119000
     32 H13         -4.7740     4.0240     0.1310 ha         1 A91       0.119000
     33 H14         -4.7770     1.5550    -0.1230 ha         1 A91       0.121000
     34 H18          2.7250     0.3270     1.1510 ha         1 A91       0.140000
     35 H231         4.9680    -2.0490     1.4800 hc         1 A91       0.057367
     36 H232         6.1860    -1.0130     0.7140 hc         1 A91       0.057367
     37 H233         5.0470    -0.3240     1.8780 hc         1 A91       0.057367
     38 H241         4.8810    -1.7280    -3.6670 hn         1 A91       0.492000
     39 H242         3.4150    -1.0550    -4.3030 hn         1 A91       0.492000
@<TRIPOS>BOND
     1     1     2 2   
     2     1     5 1   
     3     1    25 1   
     4     2     3 1   
     5     2    26 1   
     6     3     4 1   
     7     3     7 1   
     8     4     5 1   
     9     4     6 2   
    10     7     8 1   
    11     7    27 1   
    12     8     9 1   
    13     8    28 1   
    14     8    29 1   
    15     9    10 ar  
    16     9    14 ar  
    17    10    11 ar  
    18    10    15 1   
    19    11    12 ar  
    20    11    30 1   
    21    12    13 ar  
    22    12    31 1   
    23    13    14 ar  
    24    13    32 1   
    25    14    33 1   
    26    15    16 3   
    27    16    17 1   
    28    17    18 ar  
    29    17    22 ar  
    30    18    19 ar  
    31    18    34 1   
    32    19    20 ar  
    33    19    23 1   
    34    20    21 ar  
    35    21    22 ar  
    36    21    24 1   
    37    23    35 1   
    38    23    36 1   
    39    23    37 1   
    40    24    38 1   
    41    24    39 1   
@<TRIPOS>SUBSTRUCTURE
     1 A91         1 TEMP              0 ****  ****    0 ROOT
