@<TRIPOS>MOLECULE
A91
   39    41     1     0     0
SMALL
bcc


@<TRIPOS>ATOM
      1 C1          -0.7530    -3.7170    -0.0390 cc         1 A91      -0.099900
      2 C2          -0.5550    -2.4260     0.2150 cd         1 A91      -0.062400
      3 N3          -1.8180    -1.8580     0.3090 n          1 A91      -0.269400
      4 C4          -2.7690    -2.8080     0.1010 c          1 A91       0.783600
      5 O5          -2.1060    -3.9650    -0.1010 os         1 A91      -0.282200
      6 O6          -3.9730    -2.7020     0.1070 o          1 A91      -0.614500
      7 N7          -2.0500    -0.5240     0.5420 nu         1 A91      -0.527200
      8 C8          -2.4070     0.2160    -0.6660 c3         1 A91       0.181100
      9 C9          -2.4560     1.6820    -0.3490 ca         1 A91      -0.064300
     10 C10         -1.2840     2.3900    -0.0340 ca         1 A91       0.040000
     11 C11         -1.3500     3.7550     0.2610 ca         1 A91      -0.107000
     12 C12         -2.5680     4.4140     0.2540 ca         1 A91      -0.124000
     13 C13         -3.7280     3.7170    -0.0510 ca         1 A91      -0.116000
     14 C14         -3.6660     2.3620    -0.3490 ca         1 A91      -0.121000
     15 C15         -0.0190     1.7410    -0.0220 cg         1 A91      -0.049000
     16 C16          1.0670     1.2160     0.0040 ch         1 A91      -0.230000
     17 C17          2.3550     0.6040     0.0460 ca         1 A91       0.627300
     18 C18          3.5020     1.3870     0.1070 ca         1 A91      -0.409600
     19 C19          4.7160     0.7080     0.1480 ca         1 A91       0.503600
     20 N20          4.7710    -0.6160     0.1250 nb         1 A91      -0.779000
     21 C21          3.6120    -1.2790     0.0660 ca         1 A91       0.910900
     22 N22          2.3970    -0.7250     0.0280 nb         1 A91      -0.785000
     23 C23          6.0140     1.4440     0.2310 c3         1 A91      -0.152400
     24 N24          3.6730    -2.6260     0.0740 nv         1 A91      -0.946500
     25 H1          -0.0860    -4.5470    -0.1990 h4         1 A91       0.198000
     26 H2           0.3520    -1.8470     0.3120 h4         1 A91       0.226000
     27 HN7         -2.7590    -0.4300     1.2600 hn         1 A91       0.389800
     28 H81         -1.6310     0.0210    -1.4100 h1         1 A91       0.061200
     29 H82         -3.3620    -0.1030    -1.0960 h1         1 A91       0.061200
     30 H11         -0.4400     4.2920     0.4940 ha         1 A91       0.140000
     31 H12         -2.6090     5.4710     0.4840 ha         1 A91       0.137000
     32 H13         -4.6830     4.2260    -0.0570 ha         1 A91       0.137000
     33 H14         -4.5740     1.8240    -0.5890 ha         1 A91       0.139000
     34 H18          3.4500     2.4650     0.1180 ha         1 A91       0.158000
     35 H231         6.4820     1.2660     1.2000 hc         1 A91       0.057367
     36 H232         6.7060     1.0900    -0.5320 hc         1 A91       0.057367
     37 H233         5.8770     2.5170     0.1120 hc         1 A91       0.057367
     38 H241         4.5600    -3.0640    -0.1040 hn         1 A91       0.436800
     39 H242         2.8550    -3.1470    -0.1890 hn         1 A91       0.436800
@<TRIPOS>BOND
     1     1     2 2   
     2     1     5 1   
     3     1    25 1   
     4     2     3 1   
     5     2    26 1   
     6     3     4 1   
     7     3     7 1   
     8     4     5 1   
     9     4     6 2   
    10     7     8 1   
    11     7    27 1   
    12     8     9 1   
    13     8    28 1   
    14     8    29 1   
    15     9    10 ar  
    16     9    14 ar  
    17    10    11 ar  
    18    10    15 1   
    19    11    12 ar  
    20    11    30 1   
    21    12    13 ar  
    22    12    31 1   
    23    13    14 ar  
    24    13    32 1   
    25    14    33 1   
    26    15    16 3   
    27    16    17 1   
    28    17    18 ar  
    29    17    22 ar  
    30    18    19 ar  
    31    18    34 1   
    32    19    20 ar  
    33    19    23 1   
    34    20    21 ar  
    35    21    22 ar  
    36    21    24 1   
    37    23    35 1   
    38    23    36 1   
    39    23    37 1   
    40    24    38 1   
    41    24    39 1   
@<TRIPOS>SUBSTRUCTURE
     1 A91         1 TEMP              0 ****  ****    0 ROOT
