@<TRIPOS>MOLECULE
A92
   44    47     1     0     0
SMALL
No Charge or Current Charge


@<TRIPOS>ATOM
      1 F            0.1870    -1.6980    -0.2910 f          1 A92      -0.181000
      2 C1          -5.6700     1.8130     0.2560 ca         1 A92      -0.153000
      3 C2           1.0070     1.8480     0.2280 ca         1 A92      -0.043000
      4 C3          -5.8020     0.4190     0.0480 ca         1 A92      -0.062000
      5 C4           2.4100     1.7740     0.2100 ca         1 A92      -0.124000
      6 C5          -4.3950     2.4110     0.3390 ca         1 A92      -0.021000
      7 C6           2.2790    -0.6180    -0.1440 ca         1 A92      -0.151000
      8 C7           0.2140     0.6890     0.0600 ca         1 A92      -0.152900
      9 C8          -4.6530    -0.4090    -0.0800 ca         1 A92      -0.157600
     10 C9           3.0610     0.5420     0.0210 ca         1 A92      -0.026300
     11 C10         -3.4070     0.2440     0.0110 ca         1 A92      -0.034200
     12 C11         -3.2700     1.5880     0.2110 ca         1 A92       0.057400
     13 C12          0.8780    -0.5480    -0.1260 ca         1 A92       0.183000
     14 C13         -1.2550     0.8050     0.0840 cc         1 A92       0.479400
     15 C15          6.6920    -0.1560    -1.3240 c6         1 A92      -0.074400
     16 C16          7.1810    -0.9470    -0.0880 c6         1 A92      -0.115400
     17 C17          5.1460    -0.0870    -1.3380 c6         1 A92      -0.108400
     18 C18          6.5830    -0.3650     1.2150 c6         1 A92       0.148800
     19 C19          4.5960     0.4770     0.0010 c6         1 A92       0.203800
     20 N20         -2.1440    -0.2530    -0.0690 na         1 A92      -0.281600
     21 N21         -1.9290     1.9620     0.2600 nd         1 A92      -0.582100
     22 N22          5.1030    -0.3190     1.1470 n7         1 A92      -0.839400
     23 N23         -5.9780    -2.4590    -0.3800 nt         1 A92      -0.596000
     24 O24         -3.7720    -2.6260    -0.4160 o          1 A92      -0.638100
     25 H1          -6.5600     2.4300     0.3520 ha         1 A92       0.117000
     26 H2           0.5390     2.8200     0.3750 ha         1 A92       0.146000
     27 H3          -6.8030    -0.0010    -0.0090 ha         1 A92       0.103000
     28 H4           2.9920     2.6830     0.3430 ha         1 A92       0.123000
     29 H5          -4.2860     3.4810     0.4980 ha         1 A92       0.131000
     30 H6           2.7560    -1.5840    -0.2850 ha         1 A92       0.131000
     31 H15          7.1090     0.8600    -1.3030 hc         1 A92       0.043200
     32 H15A         7.0580    -0.6290    -2.2460 hc         1 A92       0.043200
     33 H16          6.8960    -2.0040    -0.1850 hc         1 A92       0.044700
     34 H16A         8.2780    -0.9230    -0.0370 hc         1 A92       0.044700
     35 H17          4.8110     0.5460    -2.1710 hc         1 A92       0.048200
     36 H17A         4.7390    -1.0890    -1.5260 hc         1 A92       0.048200
     37 H18          6.8970    -0.9790     2.0730 h1         1 A92       0.054200
     38 H18A         6.9760     0.6510     1.3760 h1         1 A92       0.054200
     39 H19          4.9770     1.5050     0.1080 h1         1 A92       0.067700
     40 HN20        -1.8870    -1.2210    -0.2150 hn         1 A92       0.398000
     41 HN22         4.7530    -1.2770     1.0450 hn         1 A92       0.404000
     42 HN23        -6.8010    -1.8850    -0.2900 hn         1 A92       0.317000
     43 HN2A        -6.0570    -3.4530    -0.5280 hn         1 A92       0.317000
     44 C14         -4.7500    -1.9040    -0.3030 c          1 A92       0.630700
@<TRIPOS>BOND
     1     1    13 1   
     2     2     4 ar  
     3     2     6 ar  
     4     2    25 1   
     5     3     5 ar  
     6     3     8 ar  
     7     3    26 1   
     8     4     9 ar  
     9     4    27 1   
    10     5    10 ar  
    11     5    28 1   
    12     6    12 ar  
    13     6    29 1   
    14     7    10 ar  
    15     7    13 ar  
    16     7    30 1   
    17     8    13 ar  
    18     8    14 1   
    19     9    11 ar  
    20     9    44 1   
    21    10    19 1   
    22    11    12 ar  
    23    11    20 1   
    24    12    21 1   
    25    14    20 1   
    26    14    21 2   
    27    15    16 1   
    28    15    17 1   
    29    15    31 1   
    30    15    32 1   
    31    16    18 1   
    32    16    33 1   
    33    16    34 1   
    34    17    19 1   
    35    17    35 1   
    36    17    36 1   
    37    18    22 1   
    38    18    37 1   
    39    18    38 1   
    40    19    22 1   
    41    19    39 1   
    42    20    40 1   
    43    22    41 1   
    44    23    42 1   
    45    23    43 1   
    46    23    44 1   
    47    24    44 2   
@<TRIPOS>SUBSTRUCTURE
     1 A92         1 TEMP              0 ****  ****    0 ROOT
