@<TRIPOS>MOLECULE
A92
   44    47     1     0     0
SMALL
bcc


@<TRIPOS>ATOM
      1 F            0.2340    -1.7480     0.0550 f          1 A92      -0.145900
      2 C1          -5.5460     1.8440     0.1300 ca         1 A92      -0.171000
      3 C2           1.0020     1.7730     0.2160 ca         1 A92      -0.061000
      4 C3          -5.7040     0.4640    -0.0320 ca         1 A92      -0.080000
      5 C4           2.3820     1.7180     0.2080 ca         1 A92      -0.142000
      6 C5          -4.2930     2.4220     0.2370 ca         1 A92      -0.039000
      7 C6           2.2970    -0.6680     0.0910 ca         1 A92      -0.169000
      8 C7           0.2260     0.6120     0.1610 ca         1 A92      -0.152900
      9 C8          -4.6170    -0.4030    -0.0900 ca         1 A92      -0.157600
     10 C9           3.0520     0.4980     0.1410 ca         1 A92      -0.026300
     11 C10         -3.3590     0.1950     0.0270 ca         1 A92      -0.034200
     12 C11         -3.1840     1.5810     0.1830 ca         1 A92       0.057400
     13 C12          0.9210    -0.5920     0.1050 ca         1 A92       0.147900
     14 C13         -1.2290     0.7320     0.1510 cc         1 A92       0.479400
     15 C15          6.5560    -0.0430    -1.3660 c6         1 A92      -0.074400
     16 C16          7.1040    -0.9060    -0.2350 c6         1 A92      -0.115400
     17 C17          5.0320     0.0110    -1.3160 c6         1 A92      -0.108400
     18 C18          6.5540    -0.4360     1.1080 c6         1 A92       0.148800
     19 C19          4.5560     0.4460     0.0780 c6         1 A92       0.203800
     20 N20         -2.0940    -0.3110     0.0140 na         1 A92      -0.231300
     21 N21         -1.8510     1.8790     0.2570 nd         1 A92      -0.582100
     22 N22          5.0980    -0.3730     1.1570 n7         1 A92      -0.784200
     23 N23         -5.9150    -2.4130    -0.4430 nt         1 A92      -0.663000
     24 O24         -3.6830    -2.5630    -0.2210 o          1 A92      -0.638100
     25 H1          -6.4280     2.4690     0.1700 ha         1 A92       0.135000
     26 H2           0.4990     2.7290     0.2640 ha         1 A92       0.164000
     27 H3          -6.7150     0.0870    -0.1070 ha         1 A92       0.121000
     28 H4           2.9510     2.6380     0.2510 ha         1 A92       0.141000
     29 H5          -4.1760     3.4910     0.3570 ha         1 A92       0.149000
     30 H6           2.7610    -1.6450     0.0270 ha         1 A92       0.149000
     31 H15          6.9520     0.9740    -1.2720 hc         1 A92       0.043200
     32 H15A         6.8880    -0.4170    -2.3370 hc         1 A92       0.043200
     33 H16          6.8180    -1.9500    -0.3960 hc         1 A92       0.044700
     34 H16A         8.1970    -0.8760    -0.2230 hc         1 A92       0.044700
     35 H17          4.6460     0.7010    -2.0710 hc         1 A92       0.048200
     36 H17A         4.6160    -0.9760    -1.5490 hc         1 A92       0.048200
     37 H18          6.8950    -1.0890     1.9140 h1         1 A92       0.054200
     38 H18A         6.9420     0.5640     1.3310 h1         1 A92       0.054200
     39 H19          4.9280     1.4640     0.2470 h1         1 A92       0.067700
     40 HN20        -1.8850    -1.2900    -0.0850 hn         1 A92       0.347700
     41 HN22         4.7370    -1.3180     1.0810 hn         1 A92       0.348800
     42 HN23        -6.7580    -1.8700    -0.5040 hn         1 A92       0.317000
     43 HN2A        -6.0050    -3.4100    -0.5500 hn         1 A92       0.317000
     44 C14         -4.7040    -1.8800    -0.2570 c          1 A92       0.697700
@<TRIPOS>BOND
     1     1    13 1   
     2     2     4 ar  
     3     2     6 ar  
     4     2    25 1   
     5     3     5 ar  
     6     3     8 ar  
     7     3    26 1   
     8     4     9 ar  
     9     4    27 1   
    10     5    10 ar  
    11     5    28 1   
    12     6    12 ar  
    13     6    29 1   
    14     7    10 ar  
    15     7    13 ar  
    16     7    30 1   
    17     8    13 ar  
    18     8    14 1   
    19     9    11 ar  
    20     9    44 1   
    21    10    19 1   
    22    11    12 ar  
    23    11    20 1   
    24    12    21 1   
    25    14    20 1   
    26    14    21 2   
    27    15    16 1   
    28    15    17 1   
    29    15    31 1   
    30    15    32 1   
    31    16    18 1   
    32    16    33 1   
    33    16    34 1   
    34    17    19 1   
    35    17    35 1   
    36    17    36 1   
    37    18    22 1   
    38    18    37 1   
    39    18    38 1   
    40    19    22 1   
    41    19    39 1   
    42    20    40 1   
    43    22    41 1   
    44    23    42 1   
    45    23    43 1   
    46    23    44 1   
    47    24    44 2   
@<TRIPOS>SUBSTRUCTURE
     1 A92         1 TEMP              0 ****  ****    0 ROOT
