@<TRIPOS>MOLECULE
A93
   46    48     1     0     0
SMALL
No Charge or Current Charge


@<TRIPOS>ATOM
      1 CAE         -2.9650    -0.0040     0.1170 c          1 A93       0.610700
      2 OAE         -2.9190    -1.2130    -0.0720 o          1 A93      -0.463000
      3 CAQ         -1.7250     0.8490     0.2650 ca         1 A93      -0.143600
      4 CAI         -1.8110     2.2410     0.4950 ca         1 A93      -0.052000
      5 CAH         -0.6440     3.0090     0.6290 ca         1 A93      -0.128000
      6 CAJ          0.6200     2.4050     0.5350 ca         1 A93      -0.072000
      7 CAR          0.7300     1.0190     0.3030 ca         1 A93      -0.057800
      8 CAM         -0.4470     0.2520     0.1730 ca         1 A93      -0.051000
      9 CAF          2.0570     0.3410     0.1990 ce         1 A93      -0.169200
     10 CAG          3.3030     0.8940     0.1180 cf         1 A93      -0.128200
     11 CAS          4.6230     0.2340     0.0130 ca         1 A93      -0.092800
     12 CAL          5.7820     1.0300    -0.0690 ca         1 A93      -0.059500
     13 CAO          7.0580     0.4450    -0.1700 ca         1 A93      -0.138300
     14 CAB          8.2930     1.3390    -0.2570 c3         1 A93      -0.041800
     15 CAP          7.1780    -0.9610    -0.1890 ca         1 A93       0.150100
     16 OAD          8.4170    -1.5320    -0.2870 oh         1 A93      -0.536100
     17 CAN          6.0260    -1.7740    -0.1070 ca         1 A93      -0.138300
     18 CAA          6.1270    -3.2990    -0.1250 c3         1 A93      -0.041800
     19 CAK          4.7570    -1.1690    -0.0060 ca         1 A93      -0.059500
     20 O3          -4.1380     0.7000     0.2360 os         1 A93      -0.354200
     21 HAI         -2.7770     2.7370     0.5720 ha         1 A93       0.133000
     22 HAH         -0.7190     4.0790     0.8090 ha         1 A93       0.119000
     23 HAJ          1.5050     3.0240     0.6510 ha         1 A93       0.116000
     24 HAM         -0.3650    -0.8180    -0.0050 ha         1 A93       0.134000
     25 HAF          1.9810    -0.7450     0.1800 ha         1 A93       0.176000
     26 HAG          3.3650     1.9820     0.1240 ha         1 A93       0.169000
     27 HAL          5.6900     2.1140    -0.0540 ha         1 A93       0.113000
     28 HAB          8.9770     1.1480     0.5780 hc         1 A93       0.043200
     29 HABA         8.8430     1.1600    -1.1890 hc         1 A93       0.043200
     30 HABB         8.0310     2.4040    -0.2300 hc         1 A93       0.043200
     31 HOAD         8.3050    -2.5050    -0.2850 ho         1 A93       0.467000
     32 HAA          6.7230    -3.6680     0.7190 hc         1 A93       0.043200
     33 HAAA         5.1400    -3.7730    -0.0530 hc         1 A93       0.043200
     34 HAAB         6.5890    -3.6560    -1.0530 hc         1 A93       0.043200
     35 HAK          3.8780    -1.8030     0.0570 ha         1 A93       0.113000
     36 C18         -5.3920     0.1680     0.0410 ca         1 A93       0.086100
     37 C19         -6.4020     0.4570     0.9750 ca         1 A93      -0.082000
     38 C20         -7.7000    -0.0550     0.7900 ca         1 A93      -0.142000
     39 C21         -7.9860    -0.8450    -0.3350 ca         1 A93       0.173000
     40 C22         -6.9850    -1.1230    -1.2800 ca         1 A93      -0.142000
     41 C23         -5.6860    -0.6120    -1.0960 ca         1 A93      -0.082000
     42 H16         -6.1780     1.0730     1.8430 ha         1 A93       0.131000
     43 H17         -8.4830     0.1610     1.5130 ha         1 A93       0.136000
     44 F1          -9.2320    -1.3340    -0.5130 f          1 A93      -0.175000
     45 H18         -7.2170    -1.7280    -2.1530 ha         1 A93       0.136000
     46 H19         -4.9170    -0.8180    -1.8370 ha         1 A93       0.131000
@<TRIPOS>BOND
     1     1     2 2   
     2     1     3 1   
     3     1    20 1   
     4     3     4 ar  
     5     3     8 ar  
     6     4     5 ar  
     7     4    21 1   
     8     5     6 ar  
     9     5    22 1   
    10     6     7 ar  
    11     6    23 1   
    12     7     8 ar  
    13     7     9 1   
    14     8    24 1   
    15     9    10 2   
    16     9    25 1   
    17    10    11 1   
    18    10    26 1   
    19    11    12 ar  
    20    11    19 ar  
    21    12    13 ar  
    22    12    27 1   
    23    13    14 1   
    24    13    15 ar  
    25    14    28 1   
    26    14    29 1   
    27    14    30 1   
    28    15    16 1   
    29    15    17 ar  
    30    16    31 1   
    31    17    18 1   
    32    17    19 ar  
    33    18    32 1   
    34    18    33 1   
    35    18    34 1   
    36    19    35 1   
    37    20    36 1   
    38    36    37 ar  
    39    36    41 ar  
    40    37    38 ar  
    41    37    42 1   
    42    38    39 ar  
    43    38    43 1   
    44    39    40 ar  
    45    39    44 1   
    46    40    41 ar  
    47    40    45 1   
    48    41    46 1   
@<TRIPOS>SUBSTRUCTURE
     1 A93         1 TEMP              0 ****  ****    0 ROOT
