@<TRIPOS>MOLECULE
A93
   46    48     1     0     0
SMALL
abcg2


@<TRIPOS>ATOM
      1 CAE         -2.9090     0.1650     0.0220 c          1 A93       0.610700
      2 OAE         -2.8990    -1.0350    -0.0280 o          1 A93      -0.463000
      3 CAQ         -1.7030     1.0230     0.0540 ca         1 A93      -0.143600
      4 CAI         -1.7760     2.4130     0.1010 ca         1 A93      -0.052000
      5 CAH         -0.6010     3.1510     0.1260 ca         1 A93      -0.128000
      6 CAJ          0.6310     2.5220     0.1060 ca         1 A93      -0.072000
      7 CAR          0.7260     1.1260     0.0600 ca         1 A93      -0.057800
      8 CAM         -0.4610     0.3950     0.0350 ca         1 A93      -0.051000
      9 CAF          1.9940     0.4010     0.0370 ce         1 A93      -0.169200
     10 CAG          3.2170     0.9480     0.0350 cf         1 A93      -0.128200
     11 CAS          4.4900     0.2370     0.0140 ca         1 A93      -0.092800
     12 CAL          5.6740     0.9780     0.0220 ca         1 A93      -0.059500
     13 CAO          6.9260     0.3810     0.0060 ca         1 A93      -0.138300
     14 CAB          8.1810     1.2020     0.0170 c3         1 A93      -0.041800
     15 CAP          6.9900    -1.0150    -0.0190 ca         1 A93       0.150100
     16 OAD          8.2220    -1.5650    -0.0320 oh         1 A93      -0.536100
     17 CAN          5.8270    -1.7950    -0.0290 ca         1 A93      -0.138300
     18 CAA          5.9170    -3.2940    -0.0570 c3         1 A93      -0.041800
     19 CAK          4.5980    -1.1550    -0.0120 ca         1 A93      -0.059500
     20 O3          -4.0440     0.8830     0.0540 os         1 A93      -0.354200
     21 HAI         -2.7270     2.9260     0.1170 ha         1 A93       0.133000
     22 HAH         -0.6490     4.2310     0.1620 ha         1 A93       0.119000
     23 HAJ          1.5250     3.1310     0.1300 ha         1 A93       0.116000
     24 HAM         -0.4110    -0.6870     0.0010 ha         1 A93       0.134000
     25 HAF          1.8930    -0.6800     0.0200 ha         1 A93       0.176000
     26 HAG          3.3110     2.0300     0.0490 ha         1 A93       0.169000
     27 HAL          5.6170     2.0610     0.0410 ha         1 A93       0.113000
     28 HAB          8.8000     0.9880     0.8890 hc         1 A93       0.043200
     29 HABA         8.7970     1.0150    -0.8640 hc         1 A93       0.043200
     30 HABB         7.9430     2.2650     0.0340 hc         1 A93       0.043200
     31 HOAD         8.1770    -2.5270    -0.0470 ho         1 A93       0.467000
     32 HAA          6.4430    -3.6910     0.8160 hc         1 A93       0.043200
     33 HAAA         4.9240    -3.7390    -0.0610 hc         1 A93       0.043200
     34 HAAB         6.4360    -3.6580    -0.9470 hc         1 A93       0.043200
     35 HAK          3.7070    -1.7710    -0.0200 ha         1 A93       0.113000
     36 C18         -5.2440     0.1980     0.0170 ca         1 A93       0.086100
     37 C19         -5.8730    -0.1300     1.2060 ca         1 A93      -0.082000
     38 C20         -7.1040    -0.7690     1.1740 ca         1 A93      -0.142000
     39 C21         -7.6680    -1.0660    -0.0520 ca         1 A93       0.173000
     40 C22         -7.0480    -0.7430    -1.2440 ca         1 A93      -0.142000
     41 C23         -5.8180    -0.1040    -1.2060 ca         1 A93      -0.082000
     42 H16         -5.4150     0.1150     2.1550 ha         1 A93       0.131000
     43 H17         -7.6130    -1.0280     2.0930 ha         1 A93       0.136000
     44 F1          -8.8580    -1.6830    -0.0860 f          1 A93      -0.175000
     45 H18         -7.5150    -0.9840    -2.1900 ha         1 A93       0.136000
     46 H19         -5.3190     0.1610    -2.1290 ha         1 A93       0.131000
@<TRIPOS>BOND
     1     1     2 2   
     2     1     3 1   
     3     1    20 1   
     4     3     4 ar  
     5     3     8 ar  
     6     4     5 ar  
     7     4    21 1   
     8     5     6 ar  
     9     5    22 1   
    10     6     7 ar  
    11     6    23 1   
    12     7     8 ar  
    13     7     9 1   
    14     8    24 1   
    15     9    10 2   
    16     9    25 1   
    17    10    11 1   
    18    10    26 1   
    19    11    12 ar  
    20    11    19 ar  
    21    12    13 ar  
    22    12    27 1   
    23    13    14 1   
    24    13    15 ar  
    25    14    28 1   
    26    14    29 1   
    27    14    30 1   
    28    15    16 1   
    29    15    17 ar  
    30    16    31 1   
    31    17    18 1   
    32    17    19 ar  
    33    18    32 1   
    34    18    33 1   
    35    18    34 1   
    36    19    35 1   
    37    20    36 1   
    38    36    37 ar  
    39    36    41 ar  
    40    37    38 ar  
    41    37    42 1   
    42    38    39 ar  
    43    38    43 1   
    44    39    40 ar  
    45    39    44 1   
    46    40    41 ar  
    47    40    45 1   
    48    41    46 1   
@<TRIPOS>SUBSTRUCTURE
     1 A93         1 TEMP              0 ****  ****    0 ROOT
