@<TRIPOS>MOLECULE
A94
   46    48     1     0     0
SMALL
abcg2


@<TRIPOS>ATOM
      1 C1          21.4260     5.2190    12.3000 ca         1 A94       0.177300
      2 N2          21.2610     5.0100    10.9910 nb         1 A94      -0.246000
      3 C3          22.2490     5.4160    10.1790 ca         1 A94       0.380900
      4 N4          23.3710     6.0480    10.5660 nb         1 A94      -0.245000
      5 C5          23.5170     6.2590    11.8730 ca         1 A94       0.121300
      6 C6          22.5710     5.8350    12.7950 ca         1 A94      -0.283000
      7 C7          20.3260     4.7610    13.2080 c3         1 A94      -0.152400
      8 N8          22.1120     5.1520     8.8540 nv         1 A94      -1.054900
      9 C9          24.7900     6.9760    12.2770 c3         1 A94       0.147500
     10 N10         24.7030     7.8400    13.4530 n7         1 A94      -0.879300
     11 S11         24.0350     9.3340    13.3500 sy         1 A94       1.180600
     12 O12         24.6860    10.0140    12.2550 o          1 A94      -0.535500
     13 O13         24.1050     9.8850    14.6820 o          1 A94      -0.535500
     14 C14         16.1390     6.5130    17.4240 c5         1 A94       0.162600
     15 C15         17.4790     7.0340    16.8760 c5         1 A94      -0.049200
     16 C16         17.2780     6.9290    15.3940 ce         1 A94      -0.365400
     17 C17         16.0460     6.2120    15.1240 c          1 A94       0.679300
     18 O18         15.4310     5.9180    16.3020 os         1 A94      -0.434100
     19 O19         15.5510     5.8660    14.0660 o          1 A94      -0.516000
     20 C20         18.0730     7.3570    14.3920 c2         1 A94       0.127000
     21 C22         20.1280     8.3950    13.5480 ca         1 A94       0.281000
     22 C23         19.7500     8.4350    12.2000 ca         1 A94      -0.100000
     23 C24         20.6660     8.8090    11.2290 ca         1 A94      -0.093000
     24 C25         21.9710     9.1460    11.5670 ca         1 A94      -0.035000
     25 C26         22.3320     9.1090    12.9080 ca         1 A94      -0.271500
     26 C27         21.4300     8.7510    13.9000 ca         1 A94      -0.078000
     27 H6          22.6840     6.0120    13.8530 ha         1 A94       0.122000
     28 H71         20.4340     5.1810    14.2070 hc         1 A94       0.058700
     29 H72         19.3570     5.0480    12.7990 hc         1 A94       0.058700
     30 H73         20.3390     3.6710    13.2860 hc         1 A94       0.058700
     31 HN81        21.2030     4.8810     8.5190 hn         1 A94       0.496500
     32 HN82        22.7200     5.6330     8.2110 hn         1 A94       0.496500
     33 H91         25.5620     6.2320    12.4860 h1         1 A94       0.096200
     34 H92         25.1390     7.5710    11.4350 h1         1 A94       0.096200
     35 HN10        24.4900     7.3840    14.3330 hn         1 A94       0.486000
     36 H142        16.2540     5.7400    18.1800 h1         1 A94       0.061200
     37 H151        17.6730     8.0560    17.2090 hc         1 A94       0.054700
     38 H152        18.3140     6.4150    17.2150 hc         1 A94       0.054700
     39 H20         17.7620     7.1760    13.3730 h4         1 A94       0.216000
     40 H23         18.7440     8.1790    11.9010 ha         1 A94       0.128000
     41 H24         20.3580     8.8310    10.1930 ha         1 A94       0.125000
     42 H25         22.6920     9.4170    10.8110 ha         1 A94       0.148000
     43 H27         21.7420     8.7030    14.9360 ha         1 A94       0.128000
     44 N21         19.2580     7.9900    14.5600 nu         1 A94      -0.830000
     45 H141        15.5130     7.3140    17.8150 h1         1 A94       0.061200
     46 HN21        19.6030     8.0930    15.5040 hn         1 A94       0.497000
@<TRIPOS>BOND
     1     1     2 ar  
     2     1     6 ar  
     3     1     7 1   
     4     2     3 ar  
     5     3     4 ar  
     6     3     8 1   
     7     4     5 ar  
     8     5     6 ar  
     9     5     9 1   
    10     6    27 1   
    11     7    28 1   
    12     7    29 1   
    13     7    30 1   
    14     8    31 1   
    15     8    32 1   
    16     9    10 1   
    17     9    33 1   
    18     9    34 1   
    19    10    11 1   
    20    10    35 1   
    21    11    12 2   
    22    11    13 2   
    23    11    25 1   
    24    14    15 1   
    25    14    18 1   
    26    14    36 1   
    27    14    45 1   
    28    15    16 1   
    29    15    37 1   
    30    15    38 1   
    31    16    17 1   
    32    16    20 2   
    33    17    18 1   
    34    17    19 2   
    35    20    39 1   
    36    20    44 1   
    37    21    22 ar  
    38    21    26 ar  
    39    21    44 1   
    40    22    23 ar  
    41    22    40 1   
    42    23    24 ar  
    43    23    41 1   
    44    24    25 ar  
    45    24    42 1   
    46    25    26 ar  
    47    26    43 1   
    48    44    46 1   
@<TRIPOS>SUBSTRUCTURE
     1 A94         1 TEMP              0 ****  ****    0 ROOT
