@<TRIPOS>MOLECULE
A94
   46    48     1     0     0
SMALL
No Charge or Current Charge


@<TRIPOS>ATOM
      1 C1          21.5000     5.1900    11.7810 ca         1 A94       0.177300
      2 N2          21.5800     5.2790    10.4380 nb         1 A94      -0.246000
      3 C3          22.7060     5.8190     9.9470 ca         1 A94       0.380900
      4 N4          23.7570     6.2880    10.6360 nb         1 A94      -0.245000
      5 C5          23.6790     6.2030    11.9810 ca         1 A94       0.121300
      6 C6          22.5490     5.6340    12.6040 ca         1 A94      -0.283000
      7 C7          20.2320     4.5960    12.3620 c3         1 A94      -0.152400
      8 N8          22.7880     5.9050     8.5960 nv         1 A94      -1.054900
      9 C9          24.8530     6.7550    12.7940 c3         1 A94       0.147500
     10 N10         24.4490     7.7960    13.7800 n7         1 A94      -0.879300
     11 S11         23.9020     9.2810    13.2280 sy         1 A94       1.180600
     12 O12         24.6580     9.5810    12.0090 o          1 A94      -0.535500
     13 O13         23.9570    10.1530    14.4040 o          1 A94      -0.535500
     14 C14         16.2230     7.0530    17.8270 c5         1 A94       0.162600
     15 C15         17.5720     7.3690    17.1290 c5         1 A94      -0.049200
     16 C16         17.3120     6.8300    15.7250 ce         1 A94      -0.365400
     17 C17         16.1510     5.9140    15.8460 c          1 A94       0.679300
     18 O18         15.6690     5.9280    17.1180 os         1 A94      -0.434100
     19 O19         15.6930     5.2260    14.9470 o          1 A94      -0.516000
     20 C20         17.9490     7.0530    14.5610 c2         1 A94       0.127000
     21 C22         19.9370     8.2380    13.5320 ca         1 A94       0.281000
     22 C23         19.5270     8.2210    12.1860 ca         1 A94      -0.100000
     23 C24         20.4360     8.5440    11.1630 ca         1 A94      -0.093000
     24 C25         21.7640     8.8780    11.4760 ca         1 A94      -0.035000
     25 C26         22.1880     8.8970    12.8220 ca         1 A94      -0.271500
     26 C27         21.2630     8.5900    13.8460 ca         1 A94      -0.078000
     27 H6          22.4800     5.5520    13.6850 ha         1 A94       0.122000
     28 H71         20.0860     4.9100    13.4020 hc         1 A94       0.058700
     29 H72         19.3470     4.9120    11.7960 hc         1 A94       0.058700
     30 H73         20.2700     3.5000    12.3440 hc         1 A94       0.058700
     31 HN81        21.9450     5.7620     8.0460 hn         1 A94       0.496500
     32 HN82        23.5140     6.4870     8.1850 hn         1 A94       0.496500
     33 H91         25.3080     5.9030    13.3190 h1         1 A94       0.096200
     34 H92         25.6260     7.1370    12.1110 h1         1 A94       0.096200
     35 HN10        23.6220     7.4600    14.2670 hn         1 A94       0.486000
     36 H142        16.3320     6.8180    18.8940 h1         1 A94       0.061200
     37 H151        17.7920     8.4430    17.1430 hc         1 A94       0.054700
     38 H152        18.4070     6.8470    17.6100 hc         1 A94       0.054700
     39 H20         17.6610     6.5830    13.6120 h4         1 A94       0.216000
     40 H23         18.5040     7.9660    11.9280 ha         1 A94       0.128000
     41 H24         20.1120     8.5270    10.1240 ha         1 A94       0.125000
     42 H25         22.4570     9.1110    10.6690 ha         1 A94       0.148000
     43 H27         21.5760     8.6080    14.8880 ha         1 A94       0.128000
     44 N21         19.0450     7.9120    14.5600 nu         1 A94      -0.830000
     45 H141        15.5290     7.8980    17.7260 h1         1 A94       0.061200
     46 HN21        19.3580     8.1920    15.4900 hn         1 A94       0.497000
@<TRIPOS>BOND
     1     1     2 ar  
     2     1     6 ar  
     3     1     7 1   
     4     2     3 ar  
     5     3     4 ar  
     6     3     8 1   
     7     4     5 ar  
     8     5     6 ar  
     9     5     9 1   
    10     6    27 1   
    11     7    28 1   
    12     7    29 1   
    13     7    30 1   
    14     8    31 1   
    15     8    32 1   
    16     9    10 1   
    17     9    33 1   
    18     9    34 1   
    19    10    11 1   
    20    10    35 1   
    21    11    12 2   
    22    11    13 2   
    23    11    25 1   
    24    14    15 1   
    25    14    18 1   
    26    14    36 1   
    27    14    45 1   
    28    15    16 1   
    29    15    37 1   
    30    15    38 1   
    31    16    17 1   
    32    16    20 2   
    33    17    18 1   
    34    17    19 2   
    35    20    39 1   
    36    20    44 1   
    37    21    22 ar  
    38    21    26 ar  
    39    21    44 1   
    40    22    23 ar  
    41    22    40 1   
    42    23    24 ar  
    43    23    41 1   
    44    24    25 ar  
    45    24    42 1   
    46    25    26 ar  
    47    26    43 1   
    48    44    46 1   
@<TRIPOS>SUBSTRUCTURE
     1 A94         1 TEMP              0 ****  ****    0 ROOT
