@<TRIPOS>MOLECULE
A95
   58    61     1     0     0
SMALL
No Charge or Current Charge


@<TRIPOS>ATOM
      1 C           -5.1780     0.7390     0.2190 c          1 A95       0.550600
      2 N           -4.4860    -0.4410    -0.0220 ns         1 A95      -0.136000
      3 O           -4.6670     1.7730     0.6400 o          1 A95      -0.569100
      4 C1          -6.6270     0.6120    -0.0910 cc         1 A95       0.040500
      5 N1           1.9380    -1.2590     0.9450 ns         1 A95      -0.499900
      6 O1          -7.2180    -0.5440    -0.5640 os         1 A95      -0.244000
      7 C2          -8.5590    -0.2660    -0.7260 cc         1 A95       0.153900
      8 O2           1.3430    -3.2790     0.1010 o          1 A95      -0.611100
      9 C3          -8.8010     1.0320    -0.3630 cd         1 A95      -0.199000
     10 O3           2.5370     4.8240     0.3440 os         1 A95      -0.340100
     11 C4          -7.5730     1.5940     0.0420 cd         1 A95      -0.092000
     12 O4           5.9030    -2.7200    -1.4300 os         1 A95      -0.449000
     13 C5          -3.1170    -0.7980     0.1160 ca         1 A95       0.004000
     14 C6          -2.7540    -2.1190    -0.1970 ca         1 A95      -0.163000
     15 C7          -1.4210    -2.5470    -0.0870 ca         1 A95      -0.043500
     16 C8          -0.4110    -1.6600     0.3440 ca         1 A95      -0.181600
     17 C9          -0.7760    -0.3270     0.6540 ca         1 A95      -0.043500
     18 C10         -2.1120     0.0950     0.5410 ca         1 A95      -0.163000
     19 C11          1.0170    -2.1520     0.4470 c          1 A95       0.619700
     20 C12          3.3880    -1.4760     1.0010 c3         1 A95       0.106000
     21 C13          4.1630    -0.7090    -0.1300 c6         1 A95      -0.008700
     22 C14          3.7250     0.7880    -0.0570 ca         1 A95      -0.113300
     23 C15          4.0630     1.5590     1.0800 ca         1 A95      -0.076500
     24 C16          3.6600     2.9000     1.1910 ca         1 A95      -0.172000
     25 C17          2.9060     3.5040     0.1780 ca         1 A95       0.140100
     26 C18          1.7560     5.5310    -0.6360 c3         1 A95       0.146900
     27 C19          2.5480     2.7490    -0.9560 ca         1 A95      -0.172000
     28 C20          2.9500     1.4070    -1.0700 ca         1 A95      -0.076500
     29 C21          3.8740    -1.3590    -1.5310 c6         1 A95      -0.103900
     30 C22          4.4840    -2.7750    -1.6750 c6         1 A95       0.151600
     31 C23          6.2450    -2.2620    -0.1070 c6         1 A95       0.151600
     32 C24          5.7080    -0.8240     0.1130 c6         1 A95      -0.103900
     33 HN          -5.0720    -1.1920    -0.3640 hn         1 A95       0.167000
     34 HN1          1.5910    -0.3450     1.2020 hn         1 A95       0.319500
     35 H2          -9.2030    -1.0530    -1.0940 h4         1 A95       0.058100
     36 H3          -9.7660     1.5290    -0.3870 ha         1 A95       0.150000
     37 H4          -7.4020     2.6080     0.3930 ha         1 A95       0.160000
     38 H6          -3.5110    -2.8270    -0.5300 ha         1 A95       0.132500
     39 H7          -1.1760    -3.5780    -0.3370 ha         1 A95       0.126500
     40 H9          -0.0370     0.4010     0.9790 ha         1 A95       0.126500
     41 H10         -2.3420     1.1270     0.7870 ha         1 A95       0.132500
     42 H12          3.7400    -1.1180     1.9770 h1         1 A95       0.059700
     43 H12A         3.6060    -2.5500     0.9600 h1         1 A95       0.059700
     44 H15          4.6340     1.1220     1.8960 ha         1 A95       0.114000
     45 H16          3.9320     3.4740     2.0730 ha         1 A95       0.123500
     46 H18          2.2810     5.5680    -1.6000 h1         1 A95       0.042033
     47 H18A         0.7820     5.0470    -0.7830 h1         1 A95       0.042033
     48 H18B         1.5770     6.5620    -0.3080 h1         1 A95       0.042033
     49 H19          1.9570     3.1830    -1.7570 ha         1 A95       0.123500
     50 H20          2.6390     0.8640    -1.9580 ha         1 A95       0.114000
     51 H21          2.7950    -1.4150    -1.7220 hc         1 A95       0.052950
     52 H21A         4.2980    -0.7290    -2.3250 hc         1 A95       0.052950
     53 H22          4.3150    -3.1500    -2.6950 h1         1 A95       0.049450
     54 H22A         4.0160    -3.4830    -0.9760 h1         1 A95       0.049450
     55 H23          5.8280    -2.9540     0.6400 h1         1 A95       0.049450
     56 H23A         7.3390    -2.2710     0.0000 h1         1 A95       0.049450
     57 H24          6.2370    -0.1420    -0.5670 hc         1 A95       0.052950
     58 H24A         5.9740    -0.5070     1.1290 hc         1 A95       0.052950
@<TRIPOS>BOND
     1     1     2 1   
     2     1     3 2   
     3     1     4 1   
     4     2    13 1   
     5     2    33 1   
     6     4     6 1   
     7     4    11 2   
     8     5    19 1   
     9     5    20 1   
    10     5    34 1   
    11     6     7 1   
    12     7     9 2   
    13     7    35 1   
    14     8    19 2   
    15     9    11 1   
    16     9    36 1   
    17    10    25 1   
    18    10    26 1   
    19    11    37 1   
    20    12    30 1   
    21    12    31 1   
    22    13    14 ar  
    23    13    18 ar  
    24    14    15 ar  
    25    14    38 1   
    26    15    16 ar  
    27    15    39 1   
    28    16    17 ar  
    29    16    19 1   
    30    17    18 ar  
    31    17    40 1   
    32    18    41 1   
    33    20    21 1   
    34    20    42 1   
    35    20    43 1   
    36    21    22 1   
    37    21    29 1   
    38    21    32 1   
    39    22    23 ar  
    40    22    28 ar  
    41    23    24 ar  
    42    23    44 1   
    43    24    25 ar  
    44    24    45 1   
    45    25    27 ar  
    46    26    46 1   
    47    26    47 1   
    48    26    48 1   
    49    27    28 ar  
    50    27    49 1   
    51    28    50 1   
    52    29    30 1   
    53    29    51 1   
    54    29    52 1   
    55    30    53 1   
    56    30    54 1   
    57    31    32 1   
    58    31    55 1   
    59    31    56 1   
    60    32    57 1   
    61    32    58 1   
@<TRIPOS>SUBSTRUCTURE
     1 A95         1 TEMP              0 ****  ****    0 ROOT
