@<TRIPOS>MOLECULE
A95
   58    61     1     0     0
SMALL
abcg2


@<TRIPOS>ATOM
      1 C           -5.0020     0.6320    -0.2840 c          1 A95       0.550600
      2 N           -4.4100    -0.5570     0.0030 ns         1 A95      -0.136000
      3 O           -4.4090     1.6820    -0.4600 o          1 A95      -0.569100
      4 C1          -6.4650     0.5900    -0.3830 cc         1 A95       0.040500
      5 N1           1.9260    -1.2370     0.9690 ns         1 A95      -0.499900
      6 O1          -7.1270    -0.5710    -0.1800 os         1 A95      -0.244000
      7 C2          -8.4370    -0.3200    -0.3380 cc         1 A95       0.153900
      8 O2           1.3190    -3.2930     0.2430 o          1 A95      -0.611100
      9 C3          -8.6360     0.9870    -0.6400 cd         1 A95      -0.199000
     10 O3           2.6800     4.8000     0.6560 os         1 A95      -0.340100
     11 C4          -7.3470     1.5840    -0.6700 cd         1 A95      -0.092000
     12 O4           5.6410    -2.6260    -1.6680 os         1 A95      -0.449000
     13 C5          -3.0550    -0.8500     0.1350 ca         1 A95       0.004000
     14 C6          -2.7290    -2.1870     0.3860 ca         1 A95      -0.163000
     15 C7          -1.4140    -2.5820     0.5160 ca         1 A95      -0.043500
     16 C8          -0.3780    -1.6540     0.4240 ca         1 A95      -0.181600
     17 C9          -0.7080    -0.3270     0.1710 ca         1 A95      -0.043500
     18 C10         -2.0240     0.0840     0.0240 ca         1 A95      -0.163000
     19 C11          1.0280    -2.1390     0.5340 c          1 A95       0.619700
     20 C12          3.3530    -1.4400     0.9780 c3         1 A95       0.106000
     21 C13          4.0700    -0.6610    -0.1510 c6         1 A95      -0.008700
     22 C14          3.6990     0.8080     0.0030 ca         1 A95      -0.113300
     23 C15          4.2100     1.5590     1.0670 ca         1 A95      -0.076500
     24 C16          3.8600     2.8800     1.2640 ca         1 A95      -0.172000
     25 C17          2.9650     3.5090     0.3950 ca         1 A95       0.140100
     26 C18          1.7880     5.4760    -0.2070 c3         1 A95       0.146900
     27 C19          2.4320     2.7800    -0.6610 ca         1 A95      -0.172000
     28 C20          2.8010     1.4500    -0.8420 ca         1 A95      -0.076500
     29 C21          3.6740    -1.2040    -1.5320 c6         1 A95      -0.103900
     30 C22          4.2380    -2.5890    -1.8060 c6         1 A95       0.151600
     31 C23          6.0440    -2.2580    -0.3690 c6         1 A95       0.151600
     32 C24          5.5910    -0.8510    -0.0070 c6         1 A95      -0.103900
     33 HN          -5.0210    -1.3530     0.1200 hn         1 A95       0.167000
     34 HN1          1.5980    -0.3350     1.2730 hn         1 A95       0.319500
     35 H2          -9.1080    -1.1530    -0.2060 h4         1 A95       0.058100
     36 H3          -9.5840     1.4650    -0.8220 ha         1 A95       0.150000
     37 H4          -7.1060     2.6130    -0.8770 ha         1 A95       0.160000
     38 H6          -3.5170    -2.9260     0.4700 ha         1 A95       0.132500
     39 H7          -1.1930    -3.6260     0.6970 ha         1 A95       0.126500
     40 H9           0.0630     0.4260     0.0500 ha         1 A95       0.126500
     41 H10         -2.2280     1.1210    -0.1840 ha         1 A95       0.132500
     42 H12          3.7480    -1.1110     1.9430 h1         1 A95       0.059700
     43 H12A         3.5460    -2.5100     0.9130 h1         1 A95       0.059700
     44 H15          4.9000     1.1080     1.7700 ha         1 A95       0.114000
     45 H16          4.2780     3.4370     2.0940 ha         1 A95       0.123500
     46 H18          2.1620     5.5110    -1.2340 h1         1 A95       0.042033
     47 H18A         0.7950     5.0190    -0.2100 h1         1 A95       0.042033
     48 H18B         1.7040     6.4930     0.1690 h1         1 A95       0.042033
     49 H19          1.7300     3.2230    -1.3560 ha         1 A95       0.123500
     50 H20          2.3610     0.9220    -1.6770 ha         1 A95       0.114000
     51 H21          2.5880    -1.2410    -1.6520 hc         1 A95       0.052950
     52 H21A         4.0470    -0.5190    -2.3010 hc         1 A95       0.052950
     53 H22          4.0110    -2.8800    -2.8330 h1         1 A95       0.049450
     54 H22A         3.7670    -3.3330    -1.1500 h1         1 A95       0.049450
     55 H23          5.6680    -2.9830     0.3670 h1         1 A95       0.049450
     56 H23A         7.1330    -2.3140    -0.3420 h1         1 A95       0.049450
     57 H24          6.0980    -0.1340    -0.6590 hc         1 A95       0.052950
     58 H24A         5.9220    -0.6350     1.0130 hc         1 A95       0.052950
@<TRIPOS>BOND
     1     1     2 1   
     2     1     3 2   
     3     1     4 1   
     4     2    13 1   
     5     2    33 1   
     6     4     6 1   
     7     4    11 2   
     8     5    19 1   
     9     5    20 1   
    10     5    34 1   
    11     6     7 1   
    12     7     9 2   
    13     7    35 1   
    14     8    19 2   
    15     9    11 1   
    16     9    36 1   
    17    10    25 1   
    18    10    26 1   
    19    11    37 1   
    20    12    30 1   
    21    12    31 1   
    22    13    14 ar  
    23    13    18 ar  
    24    14    15 ar  
    25    14    38 1   
    26    15    16 ar  
    27    15    39 1   
    28    16    17 ar  
    29    16    19 1   
    30    17    18 ar  
    31    17    40 1   
    32    18    41 1   
    33    20    21 1   
    34    20    42 1   
    35    20    43 1   
    36    21    22 1   
    37    21    29 1   
    38    21    32 1   
    39    22    23 ar  
    40    22    28 ar  
    41    23    24 ar  
    42    23    44 1   
    43    24    25 ar  
    44    24    45 1   
    45    25    27 ar  
    46    26    46 1   
    47    26    47 1   
    48    26    48 1   
    49    27    28 ar  
    50    27    49 1   
    51    28    50 1   
    52    29    30 1   
    53    29    51 1   
    54    29    52 1   
    55    30    53 1   
    56    30    54 1   
    57    31    32 1   
    58    31    55 1   
    59    31    56 1   
    60    32    57 1   
    61    32    58 1   
@<TRIPOS>SUBSTRUCTURE
     1 A95         1 TEMP              0 ****  ****    0 ROOT
