@<TRIPOS>MOLECULE
A96
   41    44     1     0     0
SMALL
No Charge or Current Charge


@<TRIPOS>ATOM
      1 N1           5.7570     3.2100    -1.6420 nb         1 A96      -0.150500
      2 C2           4.7970     2.3190    -1.3190 ca         1 A96       0.074400
      3 C3           5.0440     1.2400    -0.4460 ca         1 A96      -0.126000
      4 C4           6.3550     1.1320     0.0760 ca         1 A96       0.074400
      5 N5           7.3190     2.0200    -0.2450 nb         1 A96      -0.150500
      6 C6           6.9710     3.0150    -1.0870 ca         1 A96       0.091900
      7 N10          3.9820     0.3360    -0.1500 ns         1 A96      -0.124000
      8 C11          3.8970    -0.7570     0.7060 c          1 A96       0.641700
      9 C12          2.5550    -1.4560     0.7380 ca         1 A96      -0.179600
     10 O13          4.8270    -1.1020     1.4250 o          1 A96      -0.539100
     11 C14          1.3580    -0.7640     0.4500 ca         1 A96       0.136100
     12 C15          0.1410    -1.3710     0.4860 ca         1 A96      -0.281900
     13 C16         -0.0200    -2.7220     0.8100 ca         1 A96      -0.003000
     14 C17          1.1470    -3.4520     1.0970 ca         1 A96      -0.147000
     15 C18          2.4200    -2.8360     1.0660 ca         1 A96       0.194000
     16 O21          1.2180     0.5670     0.1450 os         1 A96      -0.093100
     17 N22         -0.2140     0.8120    -0.0550 nc         1 A96      -0.360700
     18 C23         -0.8120    -0.3540     0.1700 cd         1 A96       0.625800
     19 Cl24         3.8060    -3.8810     1.3890 cl         1 A96      -0.159000
     20 N25         -2.1560    -0.5150     0.0100 nu         1 A96      -0.890200
     21 C26         -3.2360     0.3590    -0.1610 ca         1 A96       0.306000
     22 C27         -3.1780     1.7190     0.1970 ca         1 A96      -0.111000
     23 C28         -4.2940     2.5520     0.0110 ca         1 A96      -0.084000
     24 C29         -5.4830     2.0310    -0.5250 ca         1 A96      -0.087000
     25 C30         -5.5710     0.6660    -0.8700 ca         1 A96      -0.164300
     26 C31         -4.4360    -0.1570    -0.6840 ca         1 A96      -0.125000
     27 C36         -6.8630     0.0860    -1.4600 c3         1 A96       0.358300
     28 F37         -7.9620     0.7790    -1.0820 f          1 A96      -0.112000
     29 F38         -6.8340     0.0970    -2.8110 f          1 A96      -0.112000
     30 F39         -7.0680    -1.1970    -1.0800 f          1 A96      -0.112000
     31 H2           3.8160     2.4750    -1.7660 h4         1 A96       0.039600
     32 H4           6.6570     0.3350     0.7500 h4         1 A96       0.039600
     33 H6           7.7480     3.7320    -1.3460 h5         1 A96       0.054100
     34 HN10         3.1300     0.5220    -0.6630 hn         1 A96       0.162000
     35 H16         -1.0000    -3.1940     0.8430 ha         1 A96       0.128000
     36 H17          1.0690    -4.5080     1.3440 ha         1 A96       0.143000
     37 HN25        -2.4020    -1.5000    -0.0460 hn         1 A96       0.504000
     38 H27         -2.2790     2.1400     0.6340 ha         1 A96       0.155000
     39 H28         -4.2390     3.6030     0.2860 ha         1 A96       0.126000
     40 H29         -6.3340     2.6950    -0.6680 ha         1 A96       0.136000
     41 H31         -4.4840    -1.2080    -0.9590 ha         1 A96       0.124000
@<TRIPOS>BOND
     1     1     2 ar  
     2     1     6 ar  
     3     2     3 ar  
     4     2    31 1   
     5     3     4 ar  
     6     3     7 1   
     7     4     5 ar  
     8     4    32 1   
     9     5     6 ar  
    10     6    33 1   
    11     7     8 1   
    12     7    34 1   
    13     8     9 1   
    14     8    10 2   
    15     9    11 ar  
    16     9    15 ar  
    17    11    12 ar  
    18    11    16 1   
    19    12    13 ar  
    20    12    18 1   
    21    13    14 ar  
    22    13    35 1   
    23    14    15 ar  
    24    14    36 1   
    25    15    19 1   
    26    16    17 1   
    27    17    18 2   
    28    18    20 1   
    29    20    21 1   
    30    20    37 1   
    31    21    22 ar  
    32    21    26 ar  
    33    22    23 ar  
    34    22    38 1   
    35    23    24 ar  
    36    23    39 1   
    37    24    25 ar  
    38    24    40 1   
    39    25    26 ar  
    40    25    27 1   
    41    26    41 1   
    42    27    28 1   
    43    27    29 1   
    44    27    30 1   
@<TRIPOS>SUBSTRUCTURE
     1 A96         1 TEMP              0 ****  ****    0 ROOT
