@<TRIPOS>MOLECULE
A96
   41    44     1     0     0
SMALL
abcg2


@<TRIPOS>ATOM
      1 N1           7.0190     2.0630    -1.7950 nb         1 A96      -0.150500
      2 C2           5.9280     1.3450    -1.6190 ca         1 A96       0.074400
      3 C3           5.4180     1.0520    -0.3560 ca         1 A96      -0.126000
      4 C4           6.1300     1.5660     0.7250 ca         1 A96       0.074400
      5 N5           7.2280     2.2870     0.5390 nb         1 A96      -0.150500
      6 C6           7.6230     2.5030    -0.7020 ca         1 A96       0.091900
      7 N10          4.2600     0.2790    -0.2810 ns         1 A96      -0.124000
      8 C11          3.5900    -0.1230     0.8210 c          1 A96       0.641700
      9 C12          2.3940    -0.9720     0.5060 ca         1 A96      -0.179600
     10 O13          3.8830     0.1480     1.9640 o          1 A96      -0.539100
     11 C14          1.1190    -0.4310     0.4010 ca         1 A96       0.136100
     12 C15         -0.0120    -1.1980     0.1780 ca         1 A96      -0.281900
     13 C16          0.0890    -2.5790     0.0620 ca         1 A96      -0.003000
     14 C17          1.3390    -3.1510     0.1680 ca         1 A96      -0.147000
     15 C18          2.4660    -2.3490     0.3860 ca         1 A96       0.194000
     16 O21          0.7950     0.8560     0.4770 os         1 A96      -0.093100
     17 N22         -0.5710     0.9860     0.3040 nc         1 A96      -0.360700
     18 C23         -1.0550    -0.2080     0.1290 cd         1 A96       0.625800
     19 CL24         4.0080    -3.1090     0.5030 cl         1 A96      -0.159000
     20 N25         -2.3650    -0.5000    -0.0790 nu         1 A96      -0.890200
     21 C26         -3.4620     0.3500    -0.1650 ca         1 A96       0.306000
     22 C27         -3.3820     1.7370    -0.0380 ca         1 A96      -0.111000
     23 C28         -4.5370     2.4950    -0.1420 ca         1 A96      -0.084000
     24 C29         -5.7730     1.9120    -0.3680 ca         1 A96      -0.087000
     25 C30         -5.8480     0.5330    -0.4890 ca         1 A96      -0.164300
     26 C31         -4.7040    -0.2420    -0.3890 ca         1 A96      -0.125000
     27 C36         -7.1490    -0.1570    -0.7660 c3         1 A96       0.358300
     28 F37         -8.1970     0.6540    -0.6150 f          1 A96      -0.112000
     29 F38         -7.1900    -0.6320    -2.0170 f          1 A96      -0.112000
     30 F39         -7.3350    -1.2050     0.0480 f          1 A96      -0.112000
     31 H2           5.4300     0.9810    -2.5130 h4         1 A96       0.039600
     32 H4           5.8230     1.4020     1.7460 h4         1 A96       0.039600
     33 H6           8.5200     3.0940    -0.8400 h5         1 A96       0.054100
     34 HN10         3.8760    -0.0110    -1.1670 hn         1 A96       0.162000
     35 H16         -0.7750    -3.2090    -0.1050 ha         1 A96       0.128000
     36 H17          1.4600    -4.2210     0.0850 ha         1 A96       0.143000
     37 HN25        -2.5680    -1.4760    -0.2030 hn         1 A96       0.504000
     38 H27         -2.4360     2.2210     0.1420 ha         1 A96       0.155000
     39 H28         -4.4650     3.5690    -0.0430 ha         1 A96       0.126000
     40 H29         -6.6550     2.5310    -0.4430 ha         1 A96       0.136000
     41 H31         -4.7720    -1.3210    -0.4800 ha         1 A96       0.124000
@<TRIPOS>BOND
     1     1     2 ar  
     2     1     6 ar  
     3     2     3 ar  
     4     2    31 1   
     5     3     4 ar  
     6     3     7 1   
     7     4     5 ar  
     8     4    32 1   
     9     5     6 ar  
    10     6    33 1   
    11     7     8 1   
    12     7    34 1   
    13     8     9 1   
    14     8    10 2   
    15     9    11 ar  
    16     9    15 ar  
    17    11    12 ar  
    18    11    16 1   
    19    12    13 ar  
    20    12    18 1   
    21    13    14 ar  
    22    13    35 1   
    23    14    15 ar  
    24    14    36 1   
    25    15    19 1   
    26    16    17 1   
    27    17    18 2   
    28    18    20 1   
    29    20    21 1   
    30    20    37 1   
    31    21    22 ar  
    32    21    26 ar  
    33    22    23 ar  
    34    22    38 1   
    35    23    24 ar  
    36    23    39 1   
    37    24    25 ar  
    38    24    40 1   
    39    25    26 ar  
    40    25    27 1   
    41    26    41 1   
    42    27    28 1   
    43    27    29 1   
    44    27    30 1   
@<TRIPOS>SUBSTRUCTURE
     1 A96         1 TEMP              0 ****  ****    0 ROOT
