@<TRIPOS>MOLECULE
A97
   79    83     1     0     0
SMALL
No Charge or Current Charge


@<TRIPOS>ATOM
      1 C18         -2.3610    -0.9160    -0.1170 cp         1 A97      -0.022000
      2 C29          3.5660    -5.6100    -0.0380 c6         1 A97       0.157300
      3 C19         -1.7260    -2.2470    -0.3850 cp         1 A97       0.040000
      4 C25          2.1930    -3.3400     1.1950 c6         1 A97       0.172300
      5 C16         -2.1350     1.5540     0.1860 ca         1 A97      -0.072600
      6 C28          5.1380    -3.6860     0.1300 c3         1 A97       0.153100
      7 C14         -1.2860     2.8160     0.2420 c          1 A97       0.615700
      8 C17         -1.5700     0.2720    -0.0640 ca         1 A97      -0.121000
      9 C12          1.0580     3.7120     0.1720 c3         1 A97       0.166200
     10 C21         -1.7540    -4.4910    -1.3320 ca         1 A97       0.381900
     11 C20         -2.3950    -3.2680    -1.0930 ca         1 A97      -0.207000
     12 C26          3.3920    -4.0970     1.8560 c6         1 A97       0.157300
     13 C23          0.1560    -3.8050    -0.2350 ca         1 A97       0.603900
     14 C01          2.0510     4.2080    -4.5820 c3         1 A97      -0.092100
     15 C02          2.7200     4.1150    -3.1970 c3         1 A97      -0.070400
     16 C04          3.0510     2.7270    -1.0920 cc         1 A97       0.045800
     17 C05          4.3850     2.1920    -1.0250 cc         1 A97      -0.308000
     18 C06          5.0540     2.0840     0.1680 cd         1 A97       0.080400
     19 C07          6.4430     1.5370     0.3510 c3         1 A97      -0.074900
     20 C09          3.1700     3.0290     1.3970 c          1 A97       0.556200
     21 C11          2.4540     3.1380     0.0930 cd         1 A97      -0.261400
     22 C30          2.3700    -4.9090    -0.7640 c6         1 A97       0.172300
     23 C31         -0.4170    -2.5520     0.0500 ca         1 A97      -0.223000
     24 C32         -3.7630    -0.8030     0.0840 ca         1 A97      -0.089000
     25 C33         -4.3040     0.4660     0.3270 ca         1 A97      -0.050200
     26 C34         -3.5330     1.5860     0.3730 ca         1 A97      -0.185900
     27 C35         -4.4560     2.6720     0.6320 cc         1 A97       0.367800
     28 C39         -7.8590     0.3450     1.5800 c3         1 A97      -0.104600
     29 C40         -7.3600    -0.2090    -0.8670 c3         1 A97      -0.104600
     30 N08          4.4310     2.5010     1.3170 ns         1 A97      -0.365100
     31 N13          0.0750     2.6370     0.1520 ns         1 A97      -0.508900
     32 N22         -0.5000    -4.7600    -0.9150 nb         1 A97      -0.736000
     33 N24          1.4610    -4.1590     0.1720 nh         1 A97      -0.759300
     34 N27          4.3330    -4.6940     0.8610 n3         1 A97      -0.714600
     35 N36         -5.7240     2.2470     0.7370 nd         1 A97      -0.515100
     36 N37         -5.6070     0.8700     0.5550 na         1 A97       0.076600
     37 O15         -1.7660     3.9360     0.3560 o          1 A97      -0.592100
     38 H1           3.1610    -6.4470     0.5500 h1         1 A97       0.060450
     39 H2           4.2300    -6.0560    -0.7930 h1         1 A97       0.060450
     40 H3           1.5070    -3.0420     2.0010 h1         1 A97       0.049950
     41 H4           2.5680    -2.4160     0.7300 h1         1 A97       0.049950
     42 H5           4.5040    -3.0160    -0.4660 h1         1 A97       0.029700
     43 H6           5.7170    -3.0720     0.8330 h1         1 A97       0.029700
     44 H7           5.8460    -4.1780    -0.5500 h1         1 A97       0.029700
     45 H8          -0.5050     0.1790    -0.2470 ha         1 A97       0.116000
     46 H9           0.9200     4.3110     1.0830 h1         1 A97       0.069200
     47 H10          0.8790     4.3770    -0.6840 h1         1 A97       0.069200
     48 H11         -2.2600    -5.2820    -1.8840 h4         1 A97       0.016100
     49 H12         -3.3990    -3.1170    -1.4760 ha         1 A97       0.125000
     50 H13          3.9250    -3.4060     2.5260 h1         1 A97       0.060450
     51 H14          2.9790    -4.8920     2.4950 h1         1 A97       0.060450
     52 H15          2.3090     5.1560    -5.0680 hc         1 A97       0.036367
     53 H16          2.3850     3.3880    -5.2300 hc         1 A97       0.036367
     54 H17          0.9600     4.1550    -4.4900 hc         1 A97       0.036367
     55 H18          3.8070     4.2080    -3.3170 hc         1 A97       0.044700
     56 H19          2.3950     4.9660    -2.5850 hc         1 A97       0.044700
     57 H20          1.3130     2.6880    -2.3700 hc         1 A97       0.056700
     58 H21          2.7340     1.9550    -3.0700 hc         1 A97       0.056700
     59 H22          4.8640     1.8690    -1.9450 ha         1 A97       0.198000
     60 H23          7.1060     2.2840     0.8040 hc         1 A97       0.061367
     61 H24          6.4370     0.6520     0.9980 hc         1 A97       0.061367
     62 H25          6.8840     1.2410    -0.6080 hc         1 A97       0.061367
     63 H27          2.7710    -4.2160    -1.5180 h1         1 A97       0.049950
     64 H28          1.8220    -5.6890    -1.3110 h1         1 A97       0.049950
     65 H29          0.1460    -1.8130     0.6060 ha         1 A97       0.121000
     66 H30         -4.3990    -1.6840     0.0600 ha         1 A97       0.124000
     67 H31         -4.2880     3.7350     0.7470 h4         1 A97       0.067800
     68 H32         -6.4040    -1.0360     0.8630 h1         1 A97       0.053700
     69 H33         -8.6500    -0.4130     1.6140 hc         1 A97       0.050033
     70 H34         -7.4260     0.4300     2.5830 hc         1 A97       0.050033
     71 H35         -8.3180     1.3060     1.3180 hc         1 A97       0.050033
     72 H36         -7.7510     0.7470    -1.2350 hc         1 A97       0.050033
     73 H37         -6.5890    -0.5580    -1.5650 hc         1 A97       0.050033
     74 H38         -8.1760    -0.9410    -0.8680 hc         1 A97       0.050033
     75 H39          0.4110     1.6880     0.0730 hn         1 A97       0.317500
     76 H26          4.9120     2.4280     2.2040 hn         1 A97       0.326500
     77 C38         -6.7720    -0.0500     0.5520 c3         1 A97       0.115300
     78 O10          2.7070     3.3680     2.4760 o          1 A97      -0.559000
     79 C03          2.4000     2.8000    -2.4550 c3         1 A97      -0.054200
@<TRIPOS>BOND
     1     1     3 1   
     2     1     8 ar  
     3     1    24 ar  
     4     2    22 1   
     5     2    34 1   
     6     2    38 1   
     7     2    39 1   
     8     3    11 ar  
     9     3    23 ar  
    10     4    12 1   
    11     4    33 1   
    12     4    40 1   
    13     4    41 1   
    14     5     7 1   
    15     5     8 ar  
    16     5    26 ar  
    17     6    34 1   
    18     6    42 1   
    19     6    43 1   
    20     6    44 1   
    21     7    31 1   
    22     7    37 2   
    23     8    45 1   
    24     9    21 1   
    25     9    31 1   
    26     9    46 1   
    27     9    47 1   
    28    10    11 ar  
    29    10    32 ar  
    30    10    48 1   
    31    11    49 1   
    32    12    34 1   
    33    12    50 1   
    34    12    51 1   
    35    13    23 ar  
    36    13    32 ar  
    37    13    33 1   
    38    14    15 1   
    39    14    52 1   
    40    14    53 1   
    41    14    54 1   
    42    15    55 1   
    43    15    56 1   
    44    15    79 1   
    45    16    17 1   
    46    16    21 2   
    47    16    79 1   
    48    17    18 2   
    49    17    59 1   
    50    18    19 1   
    51    18    30 1   
    52    19    60 1   
    53    19    61 1   
    54    19    62 1   
    55    20    21 1   
    56    20    30 1   
    57    20    78 2   
    58    22    33 1   
    59    22    63 1   
    60    22    64 1   
    61    23    65 1   
    62    24    25 ar  
    63    24    66 1   
    64    25    26 ar  
    65    25    36 1   
    66    26    27 1   
    67    27    35 2   
    68    27    67 1   
    69    28    69 1   
    70    28    70 1   
    71    28    71 1   
    72    28    77 1   
    73    29    72 1   
    74    29    73 1   
    75    29    74 1   
    76    29    77 1   
    77    30    76 1   
    78    31    75 1   
    79    35    36 1   
    80    36    77 1   
    81    57    79 1   
    82    58    79 1   
    83    68    77 1   
@<TRIPOS>SUBSTRUCTURE
     1 A97         1 TEMP              0 ****  ****    0 ROOT
