@<TRIPOS>MOLECULE
A97
   79    83     1     0     0
SMALL
abcg2


@<TRIPOS>ATOM
      1 C18         -2.3650    -0.8150    -0.2400 cp         1 A97      -0.022000
      2 C29          3.8000    -4.8290    -0.2430 c6         1 A97       0.157300
      3 C19         -1.6590    -2.0900    -0.4870 cp         1 A97       0.040000
      4 C25          2.4270    -2.4370     0.4650 c6         1 A97       0.172300
      5 C16         -2.1800     1.6200    -0.0650 ca         1 A97      -0.072600
      6 C28          5.2320    -2.9460    -0.8120 c3         1 A97       0.153100
      7 C14         -1.3400     2.8520    -0.1440 c          1 A97       0.615700
      8 C17         -1.6180     0.3840    -0.2860 ca         1 A97      -0.121000
      9 C12          0.9890     3.6360     0.1880 c3         1 A97       0.166200
     10 C21         -1.5050    -4.2790    -1.3950 ca         1 A97       0.381900
     11 C20         -2.2740    -3.1610    -1.1380 ca         1 A97      -0.207000
     12 C26          3.7370    -2.8960     1.0990 c6         1 A97       0.157300
     13 C23          0.3740    -3.3970    -0.4310 ca         1 A97       0.603900
     14 C01          2.2330     2.8510    -4.3380 c3         1 A97      -0.092100
     15 C02          2.7970     3.0080    -2.9340 c3         1 A97      -0.070400
     16 C04          2.8250     2.0960    -0.5970 cc         1 A97       0.045800
     17 C05          4.0220     1.3780    -0.3470 cc         1 A97      -0.308000
     18 C06          4.6300     1.4690     0.8650 cd         1 A97       0.080400
     19 C07          5.8770     0.7420     1.2340 c3         1 A97      -0.074900
     20 C09          2.9130     2.9960     1.6730 c          1 A97       0.556200
     21 C11          2.2870     2.9010     0.3770 cd         1 A97      -0.261400
     22 C30          2.5030    -4.4430    -0.9400 c6         1 A97       0.172300
     23 C31         -0.3310    -2.2240    -0.1140 ca         1 A97      -0.223000
     24 C32         -3.7190    -0.7740     0.0220 ca         1 A97      -0.089000
     25 C33         -4.3020     0.4820     0.2250 ca         1 A97      -0.050200
     26 C34         -3.5620     1.6790     0.1740 ca         1 A97      -0.185900
     27 C35         -4.5200     2.6900     0.4280 cc         1 A97       0.367800
     28 C39         -7.4740     0.2120     1.9260 c3         1 A97      -0.104600
     29 C40         -7.6610     0.1590    -0.5960 c3         1 A97      -0.104600
     30 N08          4.0720     2.2590     1.8130 ns         1 A97      -0.365100
     31 N13         -0.1080     2.6990     0.3650 ns         1 A97      -0.508900
     32 N22         -0.2250    -4.4020    -1.0720 nb         1 A97      -0.736000
     33 N24          1.6990    -3.5620    -0.0990 nh         1 A97      -0.759300
     34 N27          4.5740    -3.7000     0.2350 n3         1 A97      -0.714600
     35 N36         -5.7050     2.1600     0.6120 nd         1 A97      -0.515100
     36 N37         -5.5800     0.8380     0.5020 na         1 A97       0.076600
     37 O15         -1.7460     3.8860    -0.6540 o          1 A97      -0.592100
     38 H1           3.5660    -5.4690     0.6130 h1         1 A97       0.060450
     39 H2           4.4070    -5.4220    -0.9310 h1         1 A97       0.060450
     40 H3           1.8380    -1.9740     1.2570 h1         1 A97       0.049950
     41 H4           2.6080    -1.6620    -0.2950 h1         1 A97       0.049950
     42 H5           4.5650    -2.4060    -1.4980 h1         1 A97       0.029700
     43 H6           5.9010    -2.2090    -0.3630 h1         1 A97       0.029700
     44 H7           5.8420    -3.6190    -1.4150 h1         1 A97       0.029700
     45 H8          -0.5730     0.3230    -0.5600 ha         1 A97       0.116000
     46 H9           0.9170     4.4600     0.8980 h1         1 A97       0.069200
     47 H10          0.9210     4.0710    -0.8110 h1         1 A97       0.069200
     48 H11         -1.9450    -5.1260    -1.9110 h4         1 A97       0.016100
     49 H12         -3.3010    -3.1160    -1.4740 ha         1 A97       0.125000
     50 H13          4.2900    -2.0160     1.4380 h1         1 A97       0.060450
     51 H14          3.4990    -3.4860     1.9900 h1         1 A97       0.060450
     52 H15          2.6590     3.5890    -5.0190 hc         1 A97       0.036367
     53 H16          2.4510     1.8610    -4.7430 hc         1 A97       0.036367
     54 H17          1.1490     2.9810    -4.3460 hc         1 A97       0.036367
     55 H18          3.8860     2.9130    -2.9580 hc         1 A97       0.044700
     56 H19          2.5850     4.0130    -2.5590 hc         1 A97       0.044700
     57 H20          1.1320     2.0730    -1.9310 hc         1 A97       0.056700
     58 H21          2.4220     0.9690    -2.3510 hc         1 A97       0.056700
     59 H22          4.4550     0.7520    -1.1150 ha         1 A97       0.198000
     60 H23          6.6360     1.4300     1.6090 hc         1 A97       0.061367
     61 H24          5.6840     0.0100     2.0200 hc         1 A97       0.061367
     62 H25          6.2850     0.2210     0.3720 hc         1 A97       0.061367
     63 H27          2.7170    -3.9540    -1.9010 h1         1 A97       0.049950
     64 H28          1.9380    -5.3440    -1.1610 h1         1 A97       0.049950
     65 H29          0.1550    -1.4180     0.4130 ha         1 A97       0.121000
     66 H30         -4.3030    -1.6830     0.0860 ha         1 A97       0.124000
     67 H31         -4.3810     3.7580     0.4740 h4         1 A97       0.067800
     68 H32         -6.3610    -1.0420     0.6050 h1         1 A97       0.053700
     69 H33         -8.2870    -0.5060     2.0280 hc         1 A97       0.050033
     70 H34         -6.8030     0.0860     2.7750 hc         1 A97       0.050033
     71 H35         -7.9030     1.2140     1.9670 hc         1 A97       0.050033
     72 H36         -8.0780     1.1660    -0.6210 hc         1 A97       0.050033
     73 H37         -7.1250    -0.0160    -1.5290 hc         1 A97       0.050033
     74 H38         -8.4890    -0.5480    -0.5460 hc         1 A97       0.050033
     75 H39          0.0900     1.8680     0.8990 hn         1 A97       0.317500
     76 H26          4.5190     2.3130     2.7200 hn         1 A97       0.326500
     77 C38         -6.7500    -0.0230     0.6090 c3         1 A97       0.115300
     78 O10          2.4950     3.6610     2.6200 o          1 A97      -0.559000
     79 C03          2.2180     1.9720    -1.9650 c3         1 A97      -0.054200
@<TRIPOS>BOND
     1     1     3 1   
     2     1     8 ar  
     3     1    24 ar  
     4     2    22 1   
     5     2    34 1   
     6     2    38 1   
     7     2    39 1   
     8     3    11 ar  
     9     3    23 ar  
    10     4    12 1   
    11     4    33 1   
    12     4    40 1   
    13     4    41 1   
    14     5     7 1   
    15     5     8 ar  
    16     5    26 ar  
    17     6    34 1   
    18     6    42 1   
    19     6    43 1   
    20     6    44 1   
    21     7    31 1   
    22     7    37 2   
    23     8    45 1   
    24     9    21 1   
    25     9    31 1   
    26     9    46 1   
    27     9    47 1   
    28    10    11 ar  
    29    10    32 ar  
    30    10    48 1   
    31    11    49 1   
    32    12    34 1   
    33    12    50 1   
    34    12    51 1   
    35    13    23 ar  
    36    13    32 ar  
    37    13    33 1   
    38    14    15 1   
    39    14    52 1   
    40    14    53 1   
    41    14    54 1   
    42    15    55 1   
    43    15    56 1   
    44    15    79 1   
    45    16    17 1   
    46    16    21 2   
    47    16    79 1   
    48    17    18 2   
    49    17    59 1   
    50    18    19 1   
    51    18    30 1   
    52    19    60 1   
    53    19    61 1   
    54    19    62 1   
    55    20    21 1   
    56    20    30 1   
    57    20    78 2   
    58    22    33 1   
    59    22    63 1   
    60    22    64 1   
    61    23    65 1   
    62    24    25 ar  
    63    24    66 1   
    64    25    26 ar  
    65    25    36 1   
    66    26    27 1   
    67    27    35 2   
    68    27    67 1   
    69    28    69 1   
    70    28    70 1   
    71    28    71 1   
    72    28    77 1   
    73    29    72 1   
    74    29    73 1   
    75    29    74 1   
    76    29    77 1   
    77    30    76 1   
    78    31    75 1   
    79    35    36 1   
    80    36    77 1   
    81    57    79 1   
    82    58    79 1   
    83    68    77 1   
@<TRIPOS>SUBSTRUCTURE
     1 A97         1 TEMP              0 ****  ****    0 ROOT
