@<TRIPOS>MOLECULE
A98
   22    22     1     0     0
SMALL
abcg2


@<TRIPOS>ATOM
      1 C4           0.8400    -0.1080     0.1330 cc         1 A98       0.555300
      2 C5           3.2020     0.4570    -0.0220 c          1 A98       0.645100
      3 C6           5.5450     0.5750    -0.0810 c3         1 A98       0.170900
      4 C3          -1.5210    -0.1010    -0.0590 cc         1 A98       0.502700
      5 C2          -3.9640     1.1430     0.0880 c3         1 A98       0.059600
      6 C1          -5.4700     0.9890    -0.0250 c3         1 A98      -0.088100
      7 S1          -3.2040    -0.4810    -0.2340 ss         1 A98      -0.331300
      8 N1          -1.0210     1.0680     0.1510 nd         1 A98      -0.317000
      9 N2           0.3280     1.0650     0.2720 nd         1 A98      -0.327000
     10 S2          -0.3320    -1.3610    -0.1590 ss         1 A98      -0.288800
     11 N3           2.1710    -0.4280     0.1940 ns         1 A98      -0.476400
     12 O1           3.0760     1.6190    -0.3020 o          1 A98      -0.465000
     13 O2           4.3520    -0.1840     0.1240 os         1 A98      -0.458100
     14 H1           5.5890     0.9810    -1.0900 h1         1 A98       0.054033
     15 H2           5.6280     1.3860     0.6410 h1         1 A98       0.054033
     16 H3           6.3640    -0.1220     0.0640 h1         1 A98       0.054033
     17 H4          -3.5820     1.8570    -0.6390 h1         1 A98       0.081200
     18 H5          -3.6720     1.4700     1.0840 h1         1 A98       0.081200
     19 H6          -5.7710     0.6770    -1.0250 hc         1 A98       0.048033
     20 H7          -5.8580     0.2680     0.6930 hc         1 A98       0.048033
     21 H8          -5.9410     1.9500     0.1810 hc         1 A98       0.048033
     22 H9           2.4160    -1.3930     0.3620 hn         1 A98       0.348500
@<TRIPOS>BOND
     1     1     9 2   
     2     1    10 1   
     3     1    11 1   
     4     2    11 1   
     5     2    12 2   
     6     2    13 1   
     7     3    13 1   
     8     3    14 1   
     9     3    15 1   
    10     3    16 1   
    11     4     7 1   
    12     4     8 2   
    13     4    10 1   
    14     5     6 1   
    15     5     7 1   
    16     5    17 1   
    17     5    18 1   
    18     6    19 1   
    19     6    20 1   
    20     6    21 1   
    21     8     9 1   
    22    11    22 1   
@<TRIPOS>SUBSTRUCTURE
     1 A98         1 TEMP              0 ****  ****    0 ROOT
