@<TRIPOS>MOLECULE
A98
   22    22     1     0     0
SMALL
No Charge or Current Charge


@<TRIPOS>ATOM
      1 C4           0.8370    -0.1230     0.0050 cc         1 A98       0.555300
      2 C5           3.2200     0.5050     0.0040 c          1 A98       0.645100
      3 C6           5.6220     0.5260    -0.0050 c3         1 A98       0.170900
      4 C3          -1.5090    -0.1790     0.0130 cc         1 A98       0.502700
      5 C2          -4.0150     1.1350     0.0380 c3         1 A98       0.059600
      6 C1          -5.5480     1.0070     0.0420 c3         1 A98      -0.088100
      7 S1          -3.2330    -0.5440     0.0150 ss         1 A98      -0.331300
      8 N1          -1.0730     1.0680     0.0260 nd         1 A98      -0.317000
      9 N2           0.3100     1.0970     0.0210 nd         1 A98      -0.327000
     10 S2          -0.3130    -1.4260    -0.0060 ss         1 A98      -0.288800
     11 N3           2.1850    -0.3790    -0.0030 ns         1 A98      -0.476400
     12 O1           3.1380     1.7230     0.0180 o          1 A98      -0.465000
     13 O2           4.3820    -0.2080    -0.0090 os         1 A98      -0.458100
     14 H1           5.6970     1.1730    -0.8880 h1         1 A98       0.054033
     15 H2           5.7040     1.1530     0.8930 h1         1 A98       0.054033
     16 H3           6.4740    -0.1640    -0.0160 h1         1 A98       0.054033
     17 H4          -3.6940     1.6990    -0.8480 h1         1 A98       0.081200
     18 H5          -3.6870     1.6780     0.9340 h1         1 A98       0.081200
     19 H6          -5.8940     0.4760    -0.8530 hc         1 A98       0.048033
     20 H7          -5.8870     0.4550     0.9270 hc         1 A98       0.048033
     21 H8          -6.0140     1.9990     0.0560 hc         1 A98       0.048033
     22 H9           2.4740    -1.3450    -0.0150 hn         1 A98       0.348500
@<TRIPOS>BOND
     1     1     9 2   
     2     1    10 1   
     3     1    11 1   
     4     2    11 1   
     5     2    12 2   
     6     2    13 1   
     7     3    13 1   
     8     3    14 1   
     9     3    15 1   
    10     3    16 1   
    11     4     7 1   
    12     4     8 2   
    13     4    10 1   
    14     5     6 1   
    15     5     7 1   
    16     5    17 1   
    17     5    18 1   
    18     6    19 1   
    19     6    20 1   
    20     6    21 1   
    21     8     9 1   
    22    11    22 1   
@<TRIPOS>SUBSTRUCTURE
     1 A98         1 TEMP              0 ****  ****    0 ROOT
