@<TRIPOS>MOLECULE
A99
   62    65     1     0     0
SMALL
bcc


@<TRIPOS>ATOM
      1 C            4.6140    -1.3920    -1.3000 c3         1 A99       0.245400
      2 N1          -6.1530    -3.9040    -0.1160 nb         1 A99      -0.868000
      3 C2          -6.6910    -2.8660    -0.7530 ca         1 A99       0.652900
      4 N3          -6.2020    -1.6480    -0.8980 nb         1 A99      -0.740000
      5 C4          -5.0140    -1.5180    -0.3090 ca         1 A99       0.420800
      6 C5          -4.3290    -2.5030     0.3840 ca         1 A99      -0.187200
      7 C6          -4.9580    -3.7570     0.4700 ca         1 A99       0.757200
      8 N6          -4.4090    -4.7950     1.1050 nv         1 A99      -0.973500
      9 N7          -3.1300    -2.0270     0.8460 nc         1 A99      -0.547100
     10 C8          -3.0870    -0.7900     0.4450 cd         1 A99       0.522700
     11 N9          -4.2050    -0.4200    -0.2590 na         1 A99      -0.264000
     12 PA           0.2450     1.8360     0.4650 p5         1 A99       1.459800
     13 PB           0.9500    -0.6450    -0.8850 p5         1 A99       1.525800
     14 PG           2.6070    -1.8800    -2.9800 p5         1 A99       1.460800
     15 O'L          3.1970     0.2530     2.2910 o          1 A99      -0.228000
     16 O'M          4.5000    -1.2440     1.5220 o          1 A99      -0.228000
     17 C1           4.0730     2.0140     0.4600 ca         1 A99      -0.051000
     18 O1A         -0.3750     0.9480     1.5030 o          1 A99      -0.867000
     19 C1B         -4.5350     0.8870    -0.7810 c5         1 A99       0.278800
     20 O1B          1.6580    -1.3650     0.2160 o          1 A99      -0.869500
     21 O1G          2.4910    -1.6740    -4.4570 o          1 A99      -0.856500
     22 C7           4.1820     0.6430     0.2640 ca         1 A99      -0.136200
     23 N2           3.9250    -0.1810     1.4320 no         1 A99       0.346200
     24 O2          -6.3730     1.7470     0.5020 oh         1 A99      -0.586800
     25 O2A          1.0730     3.0120     0.8760 o          1 A99      -0.867000
     26 C2B         -4.9980     1.8750     0.2940 c5         1 A99       0.037100
     27 O2B         -0.4410    -1.0090    -1.2870 o          1 A99      -0.869500
     28 O2G          4.1930    -1.5930    -2.6390 os         1 A99      -0.591200
     29 C3           4.5390     0.0900    -0.9680 ca         1 A99       0.001700
     30 O3          -5.4590     3.6270    -1.3080 oh         1 A99      -0.594800
     31 O3A          1.0710     0.9830    -0.6460 os         1 A99      -0.689800
     32 C3B         -4.5610     3.2110    -0.3130 c5         1 A99       0.071100
     33 O3B          1.8930    -0.6070    -2.2440 os         1 A99      -0.715800
     34 O3G          2.1720    -3.1620    -2.3420 o          1 A99      -0.856500
     35 C9           4.8310     0.9950    -1.9860 ca         1 A99      -0.114000
     36 O4          -3.4100     1.4560    -1.3750 os         1 A99      -0.329600
     37 C4B         -3.2430     2.8140    -0.9610 c5         1 A99       0.134100
     38 C10          4.7710     2.3640    -1.7950 ca         1 A99      -0.124000
     39 O5          -0.9390     2.3720    -0.5590 os         1 A99      -0.531200
     40 C5B         -2.0840     2.9490     0.0100 c3         1 A99       0.197400
     41 C11          4.3790     2.8800    -0.5690 ca         1 A99      -0.142000
     42 CM           6.0450    -1.8960    -1.1900 c3         1 A99      -0.076100
     43 H            3.9770    -1.9580    -0.6230 h1         1 A99       0.117700
     44 HN6         -4.8920    -5.6750     1.1560 hn         1 A99       0.439800
     45 HN6A        -3.5230    -4.7070     1.5700 hn         1 A99       0.439800
     46 H1           3.7480     2.4030     1.4110 ha         1 A99       0.165000
     47 H1B         -5.3380     0.7290    -1.5100 h2         1 A99       0.087700
     48 HO2         -6.5930     2.1180     1.3620 ho         1 A99       0.389000
     49 H2B         -4.4360     1.6940     1.2190 h1         1 A99       0.074700
     50 HO3         -6.3530     3.5170    -0.9640 ho         1 A99       0.396000
     51 H3B         -4.4220     3.9830     0.4570 h1         1 A99       0.038700
     52 H4           5.1010     0.6150    -2.9620 ha         1 A99       0.147000
     53 H4B         -3.0420     3.4140    -1.8530 h1         1 A99       0.088700
     54 H5           5.0190     3.0290    -2.6120 ha         1 A99       0.095000
     55 H5B         -1.9370     4.0180     0.2160 h1         1 A99       0.001200
     56 H5BA        -2.3380     2.4740     0.9650 h1         1 A99       0.001200
     57 H6           4.3090     3.9480    -0.4130 ha         1 A99       0.111000
     58 HM           6.6950    -1.3850    -1.9040 hc         1 A99       0.013033
     59 HM'A         6.4400    -1.7220    -0.1910 hc         1 A99       0.013033
     60 HM'B         6.0910    -2.9670    -1.3920 hc         1 A99       0.013033
     61 H2          -7.6580    -3.0510    -1.2100 h5         1 A99       0.006100
     62 H8          -2.2540    -0.1190     0.6100 h5         1 A99       0.156800
@<TRIPOS>BOND
     1     1    28 1   
     2     1    29 1   
     3     1    42 1   
     4     1    43 1   
     5     2     3 ar  
     6     2     7 ar  
     7     3     4 ar  
     8     3    61 1   
     9     4     5 ar  
    10     5     6 ar  
    11     5    11 1   
    12     6     7 ar  
    13     6     9 1   
    14     7     8 1   
    15     8    44 1   
    16     8    45 1   
    17     9    10 2   
    18    10    11 1   
    19    10    62 1   
    20    11    19 1   
    21    12    18 1   
    22    12    25 1   
    23    12    31 1   
    24    12    39 1   
    25    13    20 1   
    26    13    27 1   
    27    13    31 1   
    28    13    33 1   
    29    14    21 1   
    30    14    28 1   
    31    14    33 1   
    32    14    34 1   
    33    15    23 1   
    34    16    23 1   
    35    17    22 ar  
    36    17    41 ar  
    37    17    46 1   
    38    19    26 1   
    39    19    36 1   
    40    19    47 1   
    41    22    23 1   
    42    22    29 ar  
    43    24    26 1   
    44    24    48 1   
    45    26    32 1   
    46    26    49 1   
    47    29    35 ar  
    48    30    32 1   
    49    30    50 1   
    50    32    37 1   
    51    32    51 1   
    52    35    38 ar  
    53    35    52 1   
    54    36    37 1   
    55    37    40 1   
    56    37    53 1   
    57    38    41 ar  
    58    38    54 1   
    59    39    40 1   
    60    40    55 1   
    61    40    56 1   
    62    41    57 1   
    63    42    58 1   
    64    42    59 1   
    65    42    60 1   
@<TRIPOS>SUBSTRUCTURE
     1 A99         1 TEMP              0 ****  ****    0 ROOT
