@<TRIPOS>MOLECULE
A99
   62    65     1     0     0
SMALL
No Charge or Current Charge


@<TRIPOS>ATOM
      1 C            4.1360    -0.4080    -0.9970 c3         1 A99       0.268600
      2 N1          -7.4260    -2.3310    -1.6950 nb         1 A99      -0.342000
      3 C2          -7.1370    -1.0690    -2.0910 ca         1 A99       0.126900
      4 N3          -5.9880    -0.3920    -1.8600 nb         1 A99      -0.214000
      5 C4          -5.0400    -1.0530    -1.1620 ca         1 A99       0.092500
      6 C5          -5.2320    -2.3370    -0.7180 ca         1 A99      -0.056600
      7 C6          -6.4670    -2.9640    -1.0030 ca         1 A99       0.428900
      8 N6          -6.7620    -4.2330    -0.6130 nv         1 A99      -1.083900
      9 N7          -4.1280    -2.8360    -0.0400 nc         1 A99      -0.547100
     10 C8          -3.2680    -1.7960    -0.0940 cd         1 A99       0.522700
     11 N9          -3.7850    -0.6670    -0.7630 na         1 A99      -0.293300
     12 PA          -0.7310    -0.1510     3.3040 p5         1 A99       1.459800
     13 PB           0.8960    -1.4390     1.6280 p5         1 A99       1.525800
     14 PG           1.9840    -1.9470    -0.7180 p5         1 A99       1.460800
     15 O'L          4.2830     3.1450     1.1100 o          1 A99      -0.418000
     16 O'M          5.5150     1.3430     1.0780 o          1 A99      -0.418000
     17 C1           4.8920     3.3530    -1.6680 ca         1 A99      -0.033000
     18 O1A         -0.5060    -1.2950     4.2370 o          1 A99      -0.867000
     19 C1B         -3.0990     0.6010    -1.0120 c5         1 A99       0.331300
     20 O1B          2.0020    -1.8210     2.5570 o          1 A99      -0.869500
     21 O1G          0.8930    -2.4430    -1.6100 o          1 A99      -0.856500
     22 C7           4.6920     2.1420    -0.9640 ca         1 A99      -0.136200
     23 N2           4.7820     2.1740     0.5250 no         1 A99       0.726200
     24 O2          -4.2970     2.6890    -1.8390 oh         1 A99      -0.709000
     25 O2A         -0.6740     1.1330     4.0670 o          1 A99      -0.867000
     26 C2B         -3.9200     1.9110    -0.6790 c5         1 A99       0.060300
     27 O2B         -0.1180    -2.5080     1.3860 o          1 A99      -0.869500
     28 O2G          2.9290    -0.9480    -1.5630 os         1 A99      -0.614400
     29 C3           4.4230     0.9410    -1.6850 ca         1 A99       0.001700
     30 O3          -2.1500     3.5840    -0.5920 oh         1 A99      -0.717000
     31 O3A          0.2390    -0.0780     2.0660 os         1 A99      -0.689800
     32 C3B         -2.9430     2.7240     0.2290 c5         1 A99       0.094300
     33 O3B          1.4770    -0.8490     0.2890 os         1 A99      -0.715800
     34 O3G          2.7860    -3.0570    -0.1260 o          1 A99      -0.856500
     35 C9           4.3870     0.9950    -3.0980 ca         1 A99      -0.096000
     36 O4          -1.8950     0.6740    -0.2160 os         1 A99      -0.376000
     37 C4B         -2.1230     1.5760     0.8940 c5         1 A99       0.157300
     38 C10          4.5970     2.2020    -3.7850 ca         1 A99      -0.106000
     39 O5          -2.1480    -0.2910     2.5410 os         1 A99      -0.554400
     40 C5B         -2.8710     0.8600     2.0680 c3         1 A99       0.220600
     41 C11          4.8450     3.3810    -3.0700 ca         1 A99      -0.124000
     42 CM           5.3030    -1.4070    -1.1970 c3         1 A99      -0.076100
     43 H            3.9970    -0.2540     0.0810 h1         1 A99       0.117700
     44 HN6         -7.5240    -4.7120    -1.0870 hn         1 A99       0.495000
     45 HN6A        -5.9920    -4.8100    -0.2810 hn         1 A99       0.495000
     46 H1           5.0970     4.2760    -1.1270 ha         1 A99       0.147000
     47 H1B         -2.8220     0.5830    -2.0730 h2         1 A99       0.087700
     48 HO2         -5.0450     2.2190    -2.2800 ho         1 A99       0.488000
     49 H2B         -4.8170     1.6460    -0.0990 h1         1 A99       0.074700
     50 HO3         -2.6970     3.6350    -1.4190 ho         1 A99       0.495000
     51 H3B         -3.4890     3.3150     0.9780 h1         1 A99       0.038700
     52 H4           4.1830     0.0920    -3.6690 ha         1 A99       0.129000
     53 H4B         -1.1610     1.9520     1.2620 h1         1 A99       0.088700
     54 H5           4.5600     2.2230    -4.8710 ha         1 A99       0.077000
     55 H5B         -3.0180     1.5810     2.8830 h1         1 A99       0.001200
     56 H5BA        -3.8710     0.5520     1.7390 h1         1 A99       0.001200
     57 H6           5.0060     4.3170    -3.6010 ha         1 A99       0.093000
     58 HM           5.3630    -1.7420    -2.2400 hc         1 A99       0.013033
     59 HM'A         6.2550    -0.9250    -0.9420 hc         1 A99       0.013033
     60 HM'B         5.2040    -2.2850    -0.5510 hc         1 A99       0.013033
     61 H2          -7.9080    -0.5450    -2.6530 h5         1 A99       0.006100
     62 H8          -2.2680    -1.7880     0.3240 h5         1 A99       0.156800
@<TRIPOS>BOND
     1     1    28 1   
     2     1    29 1   
     3     1    42 1   
     4     1    43 1   
     5     2     3 ar  
     6     2     7 ar  
     7     3     4 ar  
     8     3    61 1   
     9     4     5 ar  
    10     5     6 ar  
    11     5    11 1   
    12     6     7 ar  
    13     6     9 1   
    14     7     8 1   
    15     8    44 1   
    16     8    45 1   
    17     9    10 2   
    18    10    11 1   
    19    10    62 1   
    20    11    19 1   
    21    12    18 1   
    22    12    25 1   
    23    12    31 1   
    24    12    39 1   
    25    13    20 1   
    26    13    27 1   
    27    13    31 1   
    28    13    33 1   
    29    14    21 1   
    30    14    28 1   
    31    14    33 1   
    32    14    34 1   
    33    15    23 1   
    34    16    23 1   
    35    17    22 ar  
    36    17    41 ar  
    37    17    46 1   
    38    19    26 1   
    39    19    36 1   
    40    19    47 1   
    41    22    23 1   
    42    22    29 ar  
    43    24    26 1   
    44    24    48 1   
    45    26    32 1   
    46    26    49 1   
    47    29    35 ar  
    48    30    32 1   
    49    30    50 1   
    50    32    37 1   
    51    32    51 1   
    52    35    38 ar  
    53    35    52 1   
    54    36    37 1   
    55    37    40 1   
    56    37    53 1   
    57    38    41 ar  
    58    38    54 1   
    59    39    40 1   
    60    40    55 1   
    61    40    56 1   
    62    41    57 1   
    63    42    58 1   
    64    42    59 1   
    65    42    60 1   
@<TRIPOS>SUBSTRUCTURE
     1 A99         1 TEMP              0 ****  ****    0 ROOT
