@<TRIPOS>MOLECULE
A9B
   25    26     1     0     0
SMALL
No Charge or Current Charge


@<TRIPOS>ATOM
      1 C11         -4.7940    29.9000   -25.9840 c          1 A9B       0.556600
      2 C10         -3.5740    30.1210   -25.1300 cc         1 A9B       0.082500
      3 C9          -2.9180    31.2850   -24.7770 cd         1 A9B      -0.101000
      4 C8          -1.8260    30.9290   -23.9560 cd         1 A9B      -0.191000
      5 C7          -1.8630    29.5680   -23.8440 cc         1 A9B       0.215500
      6 C4          -0.2060    26.4990   -22.3680 ca         1 A9B      -0.106000
      7 C5          -1.0900    27.3240   -23.0860 ca         1 A9B      -0.076500
      8 C6          -0.9260    28.7270   -23.0870 ca         1 A9B      -0.130500
      9 C3           0.8520    27.0670   -21.6440 ca         1 A9B       0.131000
     10 C2           1.0290    28.4580   -21.6360 ca         1 A9B      -0.106000
     11 C1           0.1460    29.2860   -22.3520 ca         1 A9B      -0.076500
     12 O1          -2.9180    29.0470   -24.5500 os         1 A9B      -0.217000
     13 O2          -5.2410    28.7780   -26.1910 o          1 A9B      -0.590100
     14 N1          -5.4670    30.9810   -26.5770 ns         1 A9B      -0.404300
     15 N2          -5.1520    32.4020   -26.4930 n8         1 A9B      -0.740200
     16 Cl1          1.9580    26.0340   -20.7470 cl         1 A9B      -0.207000
     17 H1          -3.1680    32.2990   -25.0600 ha         1 A9B       0.157000
     18 H2          -1.1080    31.6080   -23.5110 ha         1 A9B       0.143000
     19 H4          -1.9050    26.8640   -23.6410 ha         1 A9B       0.130000
     20 H5           1.8500    28.8960   -21.0730 ha         1 A9B       0.132500
     21 H6           0.3070    30.3600   -22.3270 ha         1 A9B       0.130000
     22 H7          -6.2790    30.7010   -27.1310 hn         1 A9B       0.317500
     23 H8          -4.9790    32.8040   -27.4280 hn         1 A9B       0.408500
     24 H9          -5.9380    32.9380   -26.0930 hn         1 A9B       0.408500
     25 H3          -0.3420    25.4200   -22.3740 ha         1 A9B       0.132500
@<TRIPOS>BOND
     1     1     2 1   
     2     1    13 2   
     3     1    14 1   
     4     2     3 2   
     5     2    12 1   
     6     3     4 1   
     7     3    17 1   
     8     4     5 2   
     9     4    18 1   
    10     5     8 1   
    11     5    12 1   
    12     6     7 ar  
    13     6     9 ar  
    14     6    25 1   
    15     7     8 ar  
    16     7    19 1   
    17     8    11 ar  
    18     9    10 ar  
    19     9    16 1   
    20    10    11 ar  
    21    10    20 1   
    22    11    21 1   
    23    14    15 1   
    24    14    22 1   
    25    15    23 1   
    26    15    24 1   
@<TRIPOS>SUBSTRUCTURE
     1 A9B         1 TEMP              0 ****  ****    0 ROOT
