@<TRIPOS>MOLECULE
A9B
   25    26     1     0     0
SMALL
abcg2


@<TRIPOS>ATOM
      1 C11         -4.6520    29.8760   -25.8990 c          1 A9B       0.556600
      2 C10         -3.4800    30.2910   -25.1100 cc         1 A9B       0.082500
      3 C9          -2.8360    31.4590   -24.7940 cd         1 A9B      -0.101000
      4 C8          -1.7350    31.1130   -23.9710 cd         1 A9B      -0.191000
      5 C7          -1.7640    29.7500   -23.8250 cc         1 A9B       0.215500
      6 C4          -0.3630    26.5400   -22.4660 ca         1 A9B      -0.106000
      7 C5          -1.1690    27.4320   -23.1580 ca         1 A9B      -0.076500
      8 C6          -0.9220    28.8100   -23.1070 ca         1 A9B      -0.130500
      9 C3           0.6990    27.0260   -21.7170 ca         1 A9B       0.131000
     10 C2           0.9700    28.3880   -21.6510 ca         1 A9B      -0.106000
     11 C1           0.1590    29.2720   -22.3450 ca         1 A9B      -0.076500
     12 O1          -2.8200    29.2460   -24.5150 os         1 A9B      -0.217000
     13 O2          -4.9420    28.6790   -26.0090 o          1 A9B      -0.590100
     14 N1          -5.4120    30.8130   -26.5120 ns         1 A9B      -0.404300
     15 N2          -5.1950    32.1930   -26.4370 n8         1 A9B      -0.740200
     16 CL1          1.7160    25.9070   -20.8380 cl         1 A9B      -0.207000
     17 H1          -3.1250    32.4400   -25.1180 ha         1 A9B       0.157000
     18 H2          -1.0150    31.7890   -23.5420 ha         1 A9B       0.143000
     19 H4          -1.9970    27.0550   -23.7420 ha         1 A9B       0.130000
     20 H5           1.8010    28.7520   -21.0640 ha         1 A9B       0.132500
     21 H6           0.3700    30.3310   -22.2890 ha         1 A9B       0.130000
     22 H7          -6.2040    30.4580   -27.0340 hn         1 A9B       0.317500
     23 H8          -5.0640    32.5600   -27.3750 hn         1 A9B       0.408500
     24 H9          -6.0140    32.6380   -26.0340 hn         1 A9B       0.408500
     25 H3          -0.5590    25.4780   -22.5100 ha         1 A9B       0.132500
@<TRIPOS>BOND
     1     1     2 1   
     2     1    13 2   
     3     1    14 1   
     4     2     3 2   
     5     2    12 1   
     6     3     4 1   
     7     3    17 1   
     8     4     5 2   
     9     4    18 1   
    10     5     8 1   
    11     5    12 1   
    12     6     7 ar  
    13     6     9 ar  
    14     6    25 1   
    15     7     8 ar  
    16     7    19 1   
    17     8    11 ar  
    18     9    10 ar  
    19     9    16 1   
    20    10    11 ar  
    21    10    20 1   
    22    11    21 1   
    23    14    15 1   
    24    14    22 1   
    25    15    23 1   
    26    15    24 1   
@<TRIPOS>SUBSTRUCTURE
     1 A9B         1 TEMP              0 ****  ****    0 ROOT
