@<TRIPOS>MOLECULE
A9C
   87    90     1     0     0
SMALL
abcg2


@<TRIPOS>ATOM
      1 CAV          5.9990    -0.1120     0.8460 c6         1 A9C       0.130300
      2 CAT          6.1300     0.4240     2.2660 c6         1 A9C       0.164300
      3 NBN          6.7380     1.7410     2.3400 n3         1 A9C      -0.715600
      4 CAA          8.1740     1.7360     2.1490 c3         1 A9C       0.152100
      5 CAU          6.0380     2.6510     1.4510 c6         1 A9C       0.164300
      6 CAW          5.9080     2.1340     0.0230 c6         1 A9C       0.130300
      7 NBO          5.2630     0.8320     0.0230 n3         1 A9C      -0.726600
      8 CAZ          5.0340     0.3330    -1.3100 c3         1 A9C       0.213100
      9 CBH          3.9700    -0.7330    -1.3870 ca         1 A9C      -0.068300
     10 CAM          3.0090    -0.8850    -0.3940 ca         1 A9C      -0.119000
     11 CAO          1.9730    -1.7940    -0.5430 ca         1 A9C      -0.071000
     12 CAL          3.8930    -1.5480    -2.5150 ca         1 A9C      -0.119000
     13 CAN          2.8650    -2.4630    -2.6650 ca         1 A9C      -0.071000
     14 CBJ          1.8760    -2.5770    -1.6900 ca         1 A9C      -0.147600
     15 CBE          0.7580    -3.5400    -1.9150 c          1 A9C       0.608700
     16 OAF          0.9210    -4.5660    -2.5660 o          1 A9C      -0.615100
     17 NBB         -0.4210    -3.1920    -1.3730 ns         1 A9C      -0.500900
     18 CAX         -1.6240    -3.9790    -1.5610 c3         1 A9C       0.146300
     19 CBG         -2.5940    -3.7270    -0.4390 ca         1 A9C      -0.105300
     20 CAP         -3.6450    -2.8330    -0.6000 ca         1 A9C      -0.078000
     21 CAJ         -2.4360    -4.3680     0.7870 ca         1 A9C      -0.080000
     22 CAI         -3.3250    -4.1280     1.8230 ca         1 A9C      -0.119000
     23 CAK         -4.3760    -3.2360     1.6470 ca         1 A9C      -0.080000
     24 CBI         -4.5430    -2.5800     0.4330 ca         1 A9C      -0.101300
     25 CAY         -5.6280    -1.5590     0.2530 c3         1 A9C       0.211900
     26 OBD         -5.1050    -0.3120     0.6600 os         1 A9C      -0.467000
     27 CBM         -5.8220     0.8200     0.2160 c5         1 A9C       0.153300
     28 CAS         -7.0670     1.0940     1.0460 c5         1 A9C      -0.110400
     29 CAQ         -6.5260     1.6350     2.3770 c5         1 A9C      -0.069400
     30 CAR         -5.1650     2.2800     2.0420 c5         1 A9C      -0.093400
     31 CBL         -4.9460     2.0310     0.5350 c5         1 A9C       0.112700
     32 NBC         -3.5760     1.7940     0.1510 ns         1 A9C      -0.483900
     33 CBF         -2.6860     2.7710    -0.0450 c          1 A9C       0.621300
     34 OAG         -2.9570     3.9600     0.0210 o          1 A9C      -0.609100
     35 CBK         -1.2840     2.3180    -0.3620 ce         1 A9C      -0.120900
     36 CAH         -1.0650     0.9200    -0.5220 cg         1 A9C       0.319700
     37 NAE         -0.9590    -0.2230    -0.6280 n1         1 A9C      -0.498000
     38 CBA         -0.2970     3.2230    -0.4450 c2         1 A9C      -0.062200
     39 CBP          1.1740     3.0170    -0.6900 c3         1 A9C      -0.029800
     40 CAC          1.8100     4.3850    -0.9510 c3         1 A9C      -0.087433
     41 CAD          1.7810     2.4180     0.5900 c3         1 A9C      -0.087433
     42 CAB          1.4460     2.1110    -1.8970 c3         1 A9C      -0.087433
     43 H1           6.9940    -0.3250     0.4180 h1         1 A9C       0.037200
     44 H2           5.4640    -1.0640     0.8750 h1         1 A9C       0.037200
     45 H3           5.1270     0.4860     2.7020 h1         1 A9C       0.057700
     46 H4           6.7060    -0.2750     2.8750 h1         1 A9C       0.057700
     47 H6           8.5200     1.4270     1.1530 h1         1 A9C       0.030033
     48 H7           8.5670     2.7380     2.3310 h1         1 A9C       0.030033
     49 H8           8.6350     1.0660     2.8770 h1         1 A9C       0.030033
     50 H9           5.0320     2.8170     1.8510 h1         1 A9C       0.057700
     51 H10          6.5470     3.6180     1.4470 h1         1 A9C       0.057700
     52 H11          5.2970     2.8330    -0.5540 h1         1 A9C       0.037200
     53 H12          6.8960     2.1010    -0.4670 h1         1 A9C       0.037200
     54 H14          4.7040     1.1710    -1.9330 h1         1 A9C       0.039700
     55 H15          5.9590    -0.0400    -1.7830 h1         1 A9C       0.039700
     56 H16          3.0660    -0.2790     0.5000 ha         1 A9C       0.121000
     57 H17          1.2460    -1.8930     0.2520 ha         1 A9C       0.127500
     58 H18          4.6430    -1.4580    -3.2920 ha         1 A9C       0.121000
     59 H19          2.8230    -3.0800    -3.5530 ha         1 A9C       0.127500
     60 H20         -0.5480    -2.2440    -1.0400 hn         1 A9C       0.344500
     61 H21         -2.0920    -3.7430    -2.5220 h1         1 A9C       0.056200
     62 H22         -1.3500    -5.0340    -1.5930 h1         1 A9C       0.056200
     63 H23         -3.7720    -2.3300    -1.5520 ha         1 A9C       0.112000
     64 H24         -1.6200    -5.0680     0.9270 ha         1 A9C       0.120000
     65 H25         -3.2040    -4.6390     2.7700 ha         1 A9C       0.116000
     66 H26         -5.0710    -3.0530     2.4570 ha         1 A9C       0.114000
     67 H27         -5.9400    -1.5180    -0.7980 h1         1 A9C       0.031200
     68 H28         -6.5110    -1.8290     0.8450 h1         1 A9C       0.031200
     69 H29         -6.0370     0.7350    -0.8580 h1         1 A9C       0.049700
     70 H30         -7.6620     1.8530     0.5320 hc         1 A9C       0.051200
     71 H31         -7.7070     0.2180     1.1600 hc         1 A9C       0.051200
     72 H32         -7.2180     2.3420     2.8340 hc         1 A9C       0.046700
     73 H33         -6.3930     0.8210     3.0910 hc         1 A9C       0.046700
     74 H34         -5.1440     3.3470     2.2630 hc         1 A9C       0.056700
     75 H35         -4.3590     1.8210     2.6160 hc         1 A9C       0.056700
     76 H36         -5.3270     2.8790    -0.0380 h1         1 A9C       0.077700
     77 H37         -3.2810     0.8280     0.1770 hn         1 A9C       0.339500
     78 H39         -0.6120     4.2470    -0.2680 ha         1 A9C       0.207000
     79 H41          1.6660     5.0590    -0.1050 hc         1 A9C       0.042811
     80 H42          2.8840     4.2770    -1.1120 hc         1 A9C       0.042811
     81 H43          1.3880     4.8590    -1.8390 hc         1 A9C       0.042811
     82 H44          1.3410     1.4510     0.8340 hc         1 A9C       0.042811
     83 H45          2.8560     2.2680     0.4620 hc         1 A9C       0.042811
     84 H46          1.6340     3.0840     1.4420 hc         1 A9C       0.042811
     85 H47          0.9250     2.4720    -2.7850 hc         1 A9C       0.042811
     86 H48          2.5150     2.1180    -2.1160 hc         1 A9C       0.042811
     87 H49          1.1690     1.0730    -1.7280 hc         1 A9C       0.042811
@<TRIPOS>BOND
     1     1     2 1   
     2     1     7 1   
     3     1    43 1   
     4     1    44 1   
     5     2     3 1   
     6     2    45 1   
     7     2    46 1   
     8     3     4 1   
     9     3     5 1   
    10     4    47 1   
    11     4    48 1   
    12     4    49 1   
    13     5     6 1   
    14     5    50 1   
    15     5    51 1   
    16     6     7 1   
    17     6    52 1   
    18     6    53 1   
    19     7     8 1   
    20     8     9 1   
    21     8    54 1   
    22     8    55 1   
    23     9    10 ar  
    24     9    12 ar  
    25    10    11 ar  
    26    10    56 1   
    27    11    14 ar  
    28    11    57 1   
    29    12    13 ar  
    30    12    58 1   
    31    13    14 ar  
    32    13    59 1   
    33    14    15 1   
    34    15    16 2   
    35    15    17 1   
    36    17    18 1   
    37    17    60 1   
    38    18    19 1   
    39    18    61 1   
    40    18    62 1   
    41    19    20 ar  
    42    19    21 ar  
    43    20    24 ar  
    44    20    63 1   
    45    21    22 ar  
    46    21    64 1   
    47    22    23 ar  
    48    22    65 1   
    49    23    24 ar  
    50    23    66 1   
    51    24    25 1   
    52    25    26 1   
    53    25    67 1   
    54    25    68 1   
    55    26    27 1   
    56    27    28 1   
    57    27    31 1   
    58    27    69 1   
    59    28    29 1   
    60    28    70 1   
    61    28    71 1   
    62    29    30 1   
    63    29    72 1   
    64    29    73 1   
    65    30    31 1   
    66    30    74 1   
    67    30    75 1   
    68    31    32 1   
    69    31    76 1   
    70    32    33 1   
    71    32    77 1   
    72    33    34 2   
    73    33    35 1   
    74    35    36 1   
    75    35    38 2   
    76    36    37 3   
    77    38    39 1   
    78    38    78 1   
    79    39    40 1   
    80    39    41 1   
    81    39    42 1   
    82    40    79 1   
    83    40    80 1   
    84    40    81 1   
    85    41    82 1   
    86    41    83 1   
    87    41    84 1   
    88    42    85 1   
    89    42    86 1   
    90    42    87 1   
@<TRIPOS>SUBSTRUCTURE
     1 A9C         1 TEMP              0 ****  ****    0 ROOT
