@<TRIPOS>MOLECULE
A9C
   87    90     1     0     0
SMALL
No Charge or Current Charge


@<TRIPOS>ATOM
      1 CAV          6.6640    -0.3660     0.8110 c6         1 A9C       0.130300
      2 CAT          7.6010    -0.9780     1.9060 c6         1 A9C       0.164300
      3 NBN          8.5210     0.0350     2.5140 n3         1 A9C      -0.715600
      4 CAA          9.6160     0.4530     1.6050 c3         1 A9C       0.152100
      5 CAU          7.7140     1.1840     3.0360 c6         1 A9C       0.164300
      6 CAW          6.7800     1.8110     1.9480 c6         1 A9C       0.130300
      7 NBO          5.8740     0.7980     1.3240 n3         1 A9C      -0.726600
      8 CAZ          4.9730     1.3910     0.3060 c3         1 A9C       0.213100
      9 CBH          3.9270     0.4150    -0.2280 ca         1 A9C      -0.068300
     10 CAM          2.8790    -0.0240     0.6000 ca         1 A9C      -0.119000
     11 CAO          1.9030    -0.9080     0.1120 ca         1 A9C      -0.071000
     12 CAL          3.9960    -0.0560    -1.5520 ca         1 A9C      -0.119000
     13 CAN          3.0260    -0.9460    -2.0430 ca         1 A9C      -0.071000
     14 CBJ          1.9580    -1.3750    -1.2240 ca         1 A9C      -0.147600
     15 CBE          0.9150    -2.3140    -1.7900 c          1 A9C       0.608700
     16 OAF          1.0920    -2.9340    -2.8300 o          1 A9C      -0.615100
     17 NBB         -0.2460    -2.4550    -1.0680 ns         1 A9C      -0.500900
     18 CAX         -1.3490    -3.3330    -1.4470 c3         1 A9C       0.146300
     19 CBG         -2.4070    -3.3980    -0.3570 ca         1 A9C      -0.105300
     20 CAP         -3.5730    -2.6130    -0.4480 ca         1 A9C      -0.078000
     21 CAJ         -2.2260    -4.2430     0.7550 ca         1 A9C      -0.080000
     22 CAI         -3.2020    -4.3020     1.7640 ca         1 A9C      -0.119000
     23 CAK         -4.3630    -3.5170     1.6690 ca         1 A9C      -0.080000
     24 CBI         -4.5550    -2.6680     0.5620 ca         1 A9C      -0.101300
     25 CAY         -5.8040    -1.8020     0.4560 c3         1 A9C       0.211900
     26 OBD         -5.3870    -0.4270     0.4700 os         1 A9C      -0.467000
     27 CBM         -6.3980     0.6100     0.2790 c5         1 A9C       0.153300
     28 CAS         -7.2160     0.7600     1.5960 c5         1 A9C      -0.110400
     29 CAQ         -6.2300     1.5670     2.4780 c5         1 A9C      -0.069400
     30 CAR         -5.8630     2.7290     1.5170 c5         1 A9C      -0.093400
     31 CBL         -5.7040     2.0290     0.1240 c5         1 A9C       0.112700
     32 NBC         -4.2630     1.7690    -0.0270 ns         1 A9C      -0.483900
     33 CBF         -3.4390     2.7290    -0.5840 c          1 A9C       0.621300
     34 OAG         -3.8690     3.8220    -0.9320 o          1 A9C      -0.609100
     35 CBK         -2.0090     2.3190    -0.8120 ce         1 A9C      -0.120900
     36 CAH         -1.5630     1.1310    -0.1480 cg         1 A9C       0.319700
     37 NAE         -1.2560     0.1520     0.4070 n1         1 A9C      -0.498000
     38 CBA         -1.2200     3.0210    -1.6770 c2         1 A9C      -0.062200
     39 CBP          0.2360     2.7830    -2.1130 c3         1 A9C      -0.029800
     40 CAC          0.6580     3.9140    -3.0900 c3         1 A9C      -0.087433
     41 CAD          1.1980     2.8240    -0.8950 c3         1 A9C      -0.087433
     42 CAB          0.3690     1.4310    -2.8620 c3         1 A9C      -0.087433
     43 H1           7.2750    -0.0600    -0.0520 h1         1 A9C       0.037200
     44 H2           5.9910    -1.1590     0.4550 h1         1 A9C       0.037200
     45 H3           6.9650    -1.4170     2.6890 h1         1 A9C       0.057700
     46 H4           8.1730    -1.8080     1.4670 h1         1 A9C       0.057700
     47 H6           9.2280     0.9440     0.7030 h1         1 A9C       0.030033
     48 H7          10.2910     1.1550     2.1120 h1         1 A9C       0.030033
     49 H8          10.2090    -0.4170     1.2920 h1         1 A9C       0.030033
     50 H9           7.0840     0.8440     3.8710 h1         1 A9C       0.057700
     51 H10          8.3720     1.9680     3.4410 h1         1 A9C       0.057700
     52 H11          6.1860     2.6100     2.4180 h1         1 A9C       0.037200
     53 H12          7.4010     2.2910     1.1770 h1         1 A9C       0.037200
     54 H14          4.4390     2.2480     0.7410 h1         1 A9C       0.039700
     55 H15          5.5630     1.7820    -0.5350 h1         1 A9C       0.039700
     56 H16          2.8230     0.3240     1.6290 ha         1 A9C       0.121000
     57 H17          1.1160    -1.2330     0.7880 ha         1 A9C       0.127500
     58 H18          4.8040     0.2690    -2.2050 ha         1 A9C       0.121000
     59 H19          3.0990    -1.2920    -3.0720 ha         1 A9C       0.127500
     60 H20         -0.3690    -1.8490    -0.2650 hn         1 A9C       0.344500
     61 H21         -1.7930    -2.9610    -2.3800 h1         1 A9C       0.056200
     62 H22         -0.9560    -4.3400    -1.6370 h1         1 A9C       0.056200
     63 H23         -3.7150    -1.9530    -1.3000 ha         1 A9C       0.112000
     64 H24         -1.3280    -4.8530     0.8370 ha         1 A9C       0.120000
     65 H25         -3.0570    -4.9550     2.6210 ha         1 A9C       0.116000
     66 H26         -5.1110    -3.5660     2.4580 ha         1 A9C       0.114000
     67 H27         -6.3290    -2.0370    -0.4790 h1         1 A9C       0.031200
     68 H28         -6.4800    -2.0210     1.2920 h1         1 A9C       0.031200
     69 H29         -7.0220     0.3550    -0.5890 h1         1 A9C       0.049700
     70 H30         -8.1450     1.3150     1.4220 hc         1 A9C       0.051200
     71 H31         -7.4980    -0.1950     2.0500 hc         1 A9C       0.051200
     72 H32         -6.6940     1.9250     3.4040 hc         1 A9C       0.046700
     73 H33         -5.3490     0.9770     2.7610 hc         1 A9C       0.046700
     74 H34         -6.6790     3.4610     1.4780 hc         1 A9C       0.056700
     75 H35         -4.9720     3.2780     1.8430 hc         1 A9C       0.056700
     76 H36         -6.1350     2.6190    -0.6970 h1         1 A9C       0.077700
     77 H37         -3.8660     0.8630     0.1950 hn         1 A9C       0.339500
     78 H39         -1.6590     3.8960    -2.1600 ha         1 A9C       0.207000
     79 H41          0.5870     4.8970    -2.6080 hc         1 A9C       0.042811
     80 H42          1.6930     3.7800    -3.4270 hc         1 A9C       0.042811
     81 H43          0.0160     3.9260    -3.9800 hc         1 A9C       0.042811
     82 H44          1.0140     1.9990    -0.2010 hc         1 A9C       0.042811
     83 H45          2.2420     2.7490    -1.2210 hc         1 A9C       0.042811
     84 H46          1.0830     3.7630    -0.3410 hc         1 A9C       0.042811
     85 H47         -0.3180     1.3910    -3.7170 hc         1 A9C       0.042811
     86 H48          1.3890     1.2930    -3.2410 hc         1 A9C       0.042811
     87 H49          0.1430     0.5820    -2.2110 hc         1 A9C       0.042811
@<TRIPOS>BOND
     1     1     2 1   
     2     1     7 1   
     3     1    43 1   
     4     1    44 1   
     5     2     3 1   
     6     2    45 1   
     7     2    46 1   
     8     3     4 1   
     9     3     5 1   
    10     4    47 1   
    11     4    48 1   
    12     4    49 1   
    13     5     6 1   
    14     5    50 1   
    15     5    51 1   
    16     6     7 1   
    17     6    52 1   
    18     6    53 1   
    19     7     8 1   
    20     8     9 1   
    21     8    54 1   
    22     8    55 1   
    23     9    10 ar  
    24     9    12 ar  
    25    10    11 ar  
    26    10    56 1   
    27    11    14 ar  
    28    11    57 1   
    29    12    13 ar  
    30    12    58 1   
    31    13    14 ar  
    32    13    59 1   
    33    14    15 1   
    34    15    16 2   
    35    15    17 1   
    36    17    18 1   
    37    17    60 1   
    38    18    19 1   
    39    18    61 1   
    40    18    62 1   
    41    19    20 ar  
    42    19    21 ar  
    43    20    24 ar  
    44    20    63 1   
    45    21    22 ar  
    46    21    64 1   
    47    22    23 ar  
    48    22    65 1   
    49    23    24 ar  
    50    23    66 1   
    51    24    25 1   
    52    25    26 1   
    53    25    67 1   
    54    25    68 1   
    55    26    27 1   
    56    27    28 1   
    57    27    31 1   
    58    27    69 1   
    59    28    29 1   
    60    28    70 1   
    61    28    71 1   
    62    29    30 1   
    63    29    72 1   
    64    29    73 1   
    65    30    31 1   
    66    30    74 1   
    67    30    75 1   
    68    31    32 1   
    69    31    76 1   
    70    32    33 1   
    71    32    77 1   
    72    33    34 2   
    73    33    35 1   
    74    35    36 1   
    75    35    38 2   
    76    36    37 3   
    77    38    39 1   
    78    38    78 1   
    79    39    40 1   
    80    39    41 1   
    81    39    42 1   
    82    40    79 1   
    83    40    80 1   
    84    40    81 1   
    85    41    82 1   
    86    41    83 1   
    87    41    84 1   
    88    42    85 1   
    89    42    86 1   
    90    42    87 1   
@<TRIPOS>SUBSTRUCTURE
     1 A9C         1 TEMP              0 ****  ****    0 ROOT
