@<TRIPOS>MOLECULE
A9D
   43    44     1     0     0
SMALL
No Charge or Current Charge


@<TRIPOS>ATOM
      1 C            6.0820    -0.9700     0.1300 c          1 A9D       0.722000
      2 N            4.6880    -0.2770    -2.0000 n8         1 A9D      -1.001200
      3 O            6.0200    -2.1910     0.0470 o          1 A9D      -0.733500
      4 C1           1.3490     0.4870     0.3530 c          1 A9D       0.606100
      5 O2           1.0710    -0.2220     1.3150 o          1 A9D      -0.517000
      6 C3           0.3920     1.4800    -0.3750 c5         1 A9D       0.051700
      7 C4           0.6920     2.9230     0.1220 c5         1 A9D      -0.086400
      8 C5          -0.6100     3.6590    -0.2690 c5         1 A9D      -0.098400
      9 C6          -1.7040     2.6610     0.1940 c5         1 A9D       0.121000
     10 N7          -1.0570     1.3490    -0.0490 n          1 A9D      -0.404800
     11 C8          -1.7630     0.1360    -0.2580 c          1 A9D       0.625100
     12 O9          -1.2360    -0.8090    -0.8400 o          1 A9D      -0.598100
     13 CA           4.9210    -0.1120    -0.5100 c3         1 A9D       0.021500
     14 CB           3.6170    -0.3420     0.3000 c3         1 A9D       0.139600
     15 OG           2.5860     0.5110    -0.2420 os         1 A9D      -0.447100
     16 C10         -3.1770     0.1300     0.4470 c5         1 A9D       0.081700
     17 C11         -2.9560    -0.0040     1.9890 c5         1 A9D      -0.092400
     18 C12         -4.2580    -0.6940     2.4590 c5         1 A9D      -0.098400
     19 C13         -4.4550    -1.7810     1.3730 c5         1 A9D       0.134000
     20 N14         -4.0480    -1.0480     0.1590 n          1 A9D      -0.467800
     21 C15         -4.4360    -1.4220    -1.1340 c          1 A9D       0.755000
     22 O16         -4.1460    -0.6850    -2.0610 o          1 A9D      -0.745000
     23 O17         -5.0950    -2.4400    -1.2680 o          1 A9D      -0.745000
     24 OXT          7.0330    -0.3820     0.6290 o          1 A9D      -0.733500
     25 HN           4.5050    -1.2700    -2.1960 hn         1 A9D       0.396500
     26 HNA          3.7960     0.1790    -2.2300 hn         1 A9D       0.396500
     27 H3           0.5560     1.3860    -1.4570 h1         1 A9D       0.088700
     28 H4           0.8480     2.9530     1.2070 hc         1 A9D       0.048200
     29 H4A          1.5820     3.3540    -0.3510 hc         1 A9D       0.048200
     30 H5          -0.7070     4.6380     0.2120 hc         1 A9D       0.040200
     31 H5A         -0.6600     3.8200    -1.3530 hc         1 A9D       0.040200
     32 H6          -1.9320     2.7890     1.2600 h1         1 A9D       0.045200
     33 H6A         -2.6280     2.7930    -0.3840 h1         1 A9D       0.045200
     34 HA           5.1990     0.9400    -0.3550 h1         1 A9D       0.046700
     35 HB           3.3210    -1.3970     0.2340 h1         1 A9D       0.050700
     36 HBA          3.8030    -0.1040     1.3560 h1         1 A9D       0.050700
     37 H10         -3.7280     1.0460     0.2020 h1         1 A9D       0.032700
     38 H11         -2.0860    -0.6330     2.2140 hc         1 A9D       0.043200
     39 H11A        -2.7920     0.9610     2.4790 hc         1 A9D       0.043200
     40 H12         -4.1750    -1.1180     3.4660 hc         1 A9D       0.020200
     41 H12A        -5.0970     0.0120     2.4680 hc         1 A9D       0.020200
     42 H13         -3.7990    -2.6470     1.5400 h1         1 A9D       0.028200
     43 H13A        -5.4960    -2.1280     1.3300 h1         1 A9D       0.028200
@<TRIPOS>BOND
     1     1     3 1   
     2     1    13 1   
     3     1    24 1   
     4     2    13 1   
     5     2    25 1   
     6     2    26 1   
     7     4     5 2   
     8     4     6 1   
     9     4    15 1   
    10     6     7 1   
    11     6    10 1   
    12     6    27 1   
    13     7     8 1   
    14     7    28 1   
    15     7    29 1   
    16     8     9 1   
    17     8    30 1   
    18     8    31 1   
    19     9    10 1   
    20     9    32 1   
    21     9    33 1   
    22    10    11 1   
    23    11    12 2   
    24    11    16 1   
    25    13    14 1   
    26    13    34 1   
    27    14    15 1   
    28    14    35 1   
    29    14    36 1   
    30    16    17 1   
    31    16    20 1   
    32    16    37 1   
    33    17    18 1   
    34    17    38 1   
    35    17    39 1   
    36    18    19 1   
    37    18    40 1   
    38    18    41 1   
    39    19    20 1   
    40    19    42 1   
    41    19    43 1   
    42    20    21 1   
    43    21    22 1   
    44    21    23 1   
@<TRIPOS>SUBSTRUCTURE
     1 A9D         1 TEMP              0 ****  ****    0 ROOT
