@<TRIPOS>MOLECULE
A9D
   43    44     1     0     0
SMALL
abcg2


@<TRIPOS>ATOM
      1 C            5.3220    -1.5090     0.0260 c          1 A9D       0.722000
      2 N            3.3390    -1.6480    -1.4640 n8         1 A9D      -1.001200
      3 O            5.2710    -2.7510     0.0420 o          1 A9D      -0.733500
      4 C1           1.3780     1.2370     0.5040 c          1 A9D       0.606100
      5 O2           1.3040     1.1250     1.7010 o          1 A9D      -0.517000
      6 C3           0.3740     2.0060    -0.3330 c5         1 A9D       0.051700
      7 C4           0.5010     3.5190    -0.1280 c5         1 A9D      -0.086400
      8 C5          -0.9200     4.0090    -0.3760 c5         1 A9D      -0.098400
      9 C6          -1.7790     2.9320     0.2750 c5         1 A9D       0.121000
     10 N7          -0.9790     1.7240     0.1050 n          1 A9D      -0.404800
     11 C8          -1.3970     0.4480     0.1560 c          1 A9D       0.625100
     12 O9          -0.6510    -0.4660    -0.1790 o          1 A9D      -0.598100
     13 CA           4.1620    -0.7540    -0.6730 c3         1 A9D       0.021500
     14 CB           3.3990     0.0010     0.4100 c3         1 A9D       0.139600
     15 OG           2.3700     0.7710    -0.2320 os         1 A9D      -0.447100
     16 C10         -2.7630     0.1610     0.7610 c5         1 A9D       0.081700
     17 C11         -2.5950    -0.4730     2.1570 c5         1 A9D      -0.092400
     18 C12         -3.6910    -1.5350     2.2020 c5         1 A9D      -0.098400
     19 C13         -3.7340    -2.0400     0.7650 c5         1 A9D       0.134000
     20 N14         -3.4640    -0.8430     0.0070 n          1 A9D      -0.467800
     21 C15         -3.6200    -0.7210    -1.3690 c          1 A9D       0.755000
     22 O16         -3.2530     0.3720    -1.8610 o          1 A9D      -0.745000
     23 O17         -4.1180    -1.6940    -1.9750 o          1 A9D      -0.745000
     24 OXT          6.1960    -0.7850     0.5420 o          1 A9D      -0.733500
     25 HN           3.1350    -2.4770    -0.9200 hn         1 A9D       0.396500
     26 HNA          2.4530    -1.2120    -1.6880 hn         1 A9D       0.396500
     27 H3           0.5060     1.7510    -1.3890 h1         1 A9D       0.088700
     28 H4           0.8000     3.7390     0.8990 hc         1 A9D       0.048200
     29 H4A          1.2380     3.9610    -0.7970 hc         1 A9D       0.048200
     30 H5          -1.1100     4.9970     0.0410 hc         1 A9D       0.040200
     31 H5A         -1.1220     4.0520    -1.4480 hc         1 A9D       0.040200
     32 H6          -1.9480     3.1500     1.3330 h1         1 A9D       0.045200
     33 H6A         -2.7480     2.8310    -0.2130 h1         1 A9D       0.045200
     34 HA           4.6140    -0.0110    -1.3410 h1         1 A9D       0.046700
     35 HB           2.9460    -0.7030     1.1140 h1         1 A9D       0.050700
     36 HBA          4.0590     0.6700     0.9640 h1         1 A9D       0.050700
     37 H10         -3.3540     1.0780     0.8370 h1         1 A9D       0.032700
     38 H11         -1.6160    -0.9500     2.2400 hc         1 A9D       0.043200
     39 H11A        -2.6710     0.2660     2.9540 hc         1 A9D       0.043200
     40 H12         -3.4850    -2.3250     2.9260 hc         1 A9D       0.020200
     41 H12A        -4.6490    -1.0840     2.4680 hc         1 A9D       0.020200
     42 H13         -2.9760    -2.8200     0.6060 h1         1 A9D       0.028200
     43 H13A        -4.7020    -2.4700     0.5040 h1         1 A9D       0.028200
@<TRIPOS>BOND
     1     1     3 1   
     2     1    13 1   
     3     1    24 1   
     4     2    13 1   
     5     2    25 1   
     6     2    26 1   
     7     4     5 2   
     8     4     6 1   
     9     4    15 1   
    10     6     7 1   
    11     6    10 1   
    12     6    27 1   
    13     7     8 1   
    14     7    28 1   
    15     7    29 1   
    16     8     9 1   
    17     8    30 1   
    18     8    31 1   
    19     9    10 1   
    20     9    32 1   
    21     9    33 1   
    22    10    11 1   
    23    11    12 2   
    24    11    16 1   
    25    13    14 1   
    26    13    34 1   
    27    14    15 1   
    28    14    35 1   
    29    14    36 1   
    30    16    17 1   
    31    16    20 1   
    32    16    37 1   
    33    17    18 1   
    34    17    38 1   
    35    17    39 1   
    36    18    19 1   
    37    18    40 1   
    38    18    41 1   
    39    19    20 1   
    40    19    42 1   
    41    19    43 1   
    42    20    21 1   
    43    21    22 1   
    44    21    23 1   
@<TRIPOS>SUBSTRUCTURE
     1 A9D         1 TEMP              0 ****  ****    0 ROOT
