@<TRIPOS>MOLECULE
A9E
   39    40     1     0     0
SMALL
bcc


@<TRIPOS>ATOM
      1 C15         -4.3580     0.8050    -0.5820 c6         1 A9E       0.096500
      2 C12         -3.8970    -1.8660     0.4690 c6         1 A9E      -0.100400
      3 C13         -5.2670    -1.2120     0.6100 c6         1 A9E      -0.073400
      4 C14         -5.1560     0.3100     0.6190 c6         1 A9E      -0.100400
      5 C11         -3.1420    -1.2920    -0.7240 c6         1 A9E       0.096500
      6 C9          -0.6460     0.0300    -0.2880 c3         1 A9E       0.056400
      7 C8           3.3150    -1.3140     0.1140 ca         1 A9E      -0.091000
      8 C7           1.9860    -0.9220    -0.0180 ca         1 A9E      -0.185500
      9 C4           3.9720     0.9450     0.4710 ca         1 A9E      -0.091000
     10 C5           2.6590     1.3570     0.3440 ca         1 A9E      -0.185500
     11 C6           1.6510     0.4230     0.0980 ca         1 A9E       0.135100
     12 C3           4.3300    -0.4000     0.3590 ca         1 A9E      -0.113300
     13 C2           5.7700    -0.8260     0.4540 c3         1 A9E      -0.025100
     14 C1           6.5230    -0.6160    -0.8580 c3         1 A9E      -0.087100
     15 O1           0.3980     0.9190    -0.0060 os         1 A9E      -0.287900
     16 O2          -1.9110     2.0520    -0.1610 o          1 A9E      -0.569100
     17 N1          -3.0560     0.1570    -0.6240 n          1 A9E      -0.478800
     18 H1          -4.8890     0.5620    -1.5080 h1         1 A9E       0.055450
     19 H2          -4.2260     1.8830    -0.5540 h1         1 A9E       0.055450
     20 H3          -3.3060    -1.7070     1.3760 hc         1 A9E       0.050200
     21 H4          -3.9980    -2.9460     0.3410 hc         1 A9E       0.050200
     22 H5          -5.9010    -1.5210    -0.2280 hc         1 A9E       0.042700
     23 H6          -5.7600    -1.5620     1.5180 hc         1 A9E       0.042700
     24 H7          -4.6650     0.6460     1.5370 hc         1 A9E       0.050200
     25 H8          -6.1480     0.7660     0.6040 hc         1 A9E       0.050200
     26 H9          -2.1550    -1.7390    -0.8120 h1         1 A9E       0.055450
     27 H10         -3.6690    -1.5360    -1.6510 h1         1 A9E       0.055450
     28 H11         -0.7330    -0.7410     0.4880 h1         1 A9E       0.047700
     29 H12         -0.4810    -0.4830    -1.2430 h1         1 A9E       0.047700
     30 H14          1.2380    -1.6810    -0.2040 ha         1 A9E       0.139500
     31 H15          4.7380     1.6880     0.6630 ha         1 A9E       0.129000
     32 H16          2.4030     2.4050     0.4380 ha         1 A9E       0.139500
     33 H17          6.2670    -0.2640     1.2490 hc         1 A9E       0.043700
     34 H18          5.8240    -1.8790     0.7380 hc         1 A9E       0.043700
     35 H19          6.5100     0.4340    -1.1560 hc         1 A9E       0.034033
     36 H20          7.5660    -0.9230    -0.7640 hc         1 A9E       0.034033
     37 H21          6.0740    -1.1950    -1.6660 hc         1 A9E       0.034033
     38 C10         -1.9340     0.8460    -0.3470 c          1 A9E       0.672100
     39 H13          3.5540    -2.3670     0.0210 ha         1 A9E       0.129000
@<TRIPOS>BOND
     1     1     4 1   
     2     1    17 1   
     3     1    18 1   
     4     1    19 1   
     5     2     3 1   
     6     2     5 1   
     7     2    20 1   
     8     2    21 1   
     9     3     4 1   
    10     3    22 1   
    11     3    23 1   
    12     4    24 1   
    13     4    25 1   
    14     5    17 1   
    15     5    26 1   
    16     5    27 1   
    17     6    15 1   
    18     6    28 1   
    19     6    29 1   
    20     6    38 1   
    21     7     8 ar  
    22     7    12 ar  
    23     7    39 1   
    24     8    11 ar  
    25     8    30 1   
    26     9    10 ar  
    27     9    12 ar  
    28     9    31 1   
    29    10    11 ar  
    30    10    32 1   
    31    11    15 1   
    32    12    13 1   
    33    13    14 1   
    34    13    33 1   
    35    13    34 1   
    36    14    35 1   
    37    14    36 1   
    38    14    37 1   
    39    16    38 2   
    40    17    38 1   
@<TRIPOS>SUBSTRUCTURE
     1 A9E         1 TEMP              0 ****  ****    0 ROOT
