@<TRIPOS>MOLECULE
A9E
   39    40     1     0     0
SMALL
No Charge or Current Charge


@<TRIPOS>ATOM
      1 C15         -4.4910     0.7980    -0.6060 c6         1 A9E       0.096500
      2 C12         -4.0570    -1.9100     0.4900 c6         1 A9E      -0.100400
      3 C13         -5.4680    -1.2710     0.5230 c6         1 A9E      -0.073400
      4 C14         -5.3730     0.2750     0.5530 c6         1 A9E      -0.100400
      5 C11         -3.2140    -1.3280    -0.6700 c6         1 A9E       0.096500
      6 C9          -0.6210     0.1180    -0.2100 c3         1 A9E       0.079600
      7 C8           3.4600    -1.2690     0.0590 ca         1 A9E      -0.073000
      8 C7           2.1210    -0.8470    -0.0340 ca         1 A9E      -0.167500
      9 C4           4.1550     1.0180     0.5080 ca         1 A9E      -0.073000
     10 C5           2.8180     1.4400     0.4140 ca         1 A9E      -0.167500
     11 C6           1.7960     0.5160     0.1440 ca         1 A9E       0.135100
     12 C3           4.4820    -0.3400     0.3320 ca         1 A9E      -0.113300
     13 C2           5.9310    -0.8000     0.4280 c3         1 A9E      -0.025100
     14 C1           6.6430    -0.7650    -0.9370 c3         1 A9E      -0.087100
     15 O1           0.5020     0.9890     0.0640 os         1 A9E      -0.311100
     16 O2          -2.0300     2.0890    -0.0290 o          1 A9E      -0.569100
     17 N1          -3.1480     0.1580    -0.5730 n          1 A9E      -0.411800
     18 H1          -4.9730     0.5650    -1.5670 h1         1 A9E       0.055450
     19 H2          -4.4120     1.8920    -0.5430 h1         1 A9E       0.055450
     20 H3          -3.5430    -1.7270     1.4440 hc         1 A9E       0.050200
     21 H4          -4.1390    -3.0000     0.3810 hc         1 A9E       0.050200
     22 H5          -6.0370    -1.5890    -0.3620 hc         1 A9E       0.042700
     23 H6          -6.0240    -1.6320     1.3990 hc         1 A9E       0.042700
     24 H7          -4.9490     0.6020     1.5120 hc         1 A9E       0.050200
     25 H8          -6.3770     0.7150     0.4860 hc         1 A9E       0.050200
     26 H9          -2.2180    -1.7890    -0.6640 h1         1 A9E       0.055450
     27 H10         -3.6820    -1.5980    -1.6280 h1         1 A9E       0.055450
     28 H11         -0.7010    -0.6540     0.5650 h1         1 A9E       0.047700
     29 H12         -0.4940    -0.3750    -1.1810 h1         1 A9E       0.047700
     30 H14          1.3560    -1.5880    -0.2460 ha         1 A9E       0.121500
     31 H15          4.9360     1.7460     0.7150 ha         1 A9E       0.111000
     32 H16          2.5710     2.4900     0.5510 ha         1 A9E       0.121500
     33 H17          6.4840    -0.1680     1.1340 hc         1 A9E       0.043700
     34 H18          5.9800    -1.8200     0.8290 hc         1 A9E       0.043700
     35 H19          6.6470     0.2530    -1.3440 hc         1 A9E       0.034033
     36 H20          7.6820    -1.1000    -0.8360 hc         1 A9E       0.034033
     37 H21          6.1360    -1.4230    -1.6530 hc         1 A9E       0.034033
     38 C10         -1.9720     0.8820    -0.2480 c          1 A9E       0.605100
     39 H13          3.7020    -2.3200    -0.0820 ha         1 A9E       0.111000
@<TRIPOS>BOND
     1     1     4 1   
     2     1    17 1   
     3     1    18 1   
     4     1    19 1   
     5     2     3 1   
     6     2     5 1   
     7     2    20 1   
     8     2    21 1   
     9     3     4 1   
    10     3    22 1   
    11     3    23 1   
    12     4    24 1   
    13     4    25 1   
    14     5    17 1   
    15     5    26 1   
    16     5    27 1   
    17     6    15 1   
    18     6    28 1   
    19     6    29 1   
    20     6    38 1   
    21     7     8 ar  
    22     7    12 ar  
    23     7    39 1   
    24     8    11 ar  
    25     8    30 1   
    26     9    10 ar  
    27     9    12 ar  
    28     9    31 1   
    29    10    11 ar  
    30    10    32 1   
    31    11    15 1   
    32    12    13 1   
    33    13    14 1   
    34    13    33 1   
    35    13    34 1   
    36    14    35 1   
    37    14    36 1   
    38    14    37 1   
    39    16    38 2   
    40    17    38 1   
@<TRIPOS>SUBSTRUCTURE
     1 A9E         1 TEMP              0 ****  ****    0 ROOT
