@<TRIPOS>MOLECULE
A9F
   87    90     1     0     0
SMALL
abcg2


@<TRIPOS>ATOM
      1 CAV         -4.9890     2.5350     2.6990 c6         1 A9F       0.166300
      2 CAT         -6.1180     3.2510     1.9820 c6         1 A9F       0.163300
      3 NBN         -5.5980     4.1100     0.9360 n3         1 A9F      -0.717600
      4 CAA         -6.6500     4.8440     0.2730 c3         1 A9F       0.153100
      5 CAU         -4.8140     3.3340    -0.0030 c6         1 A9F       0.163300
      6 CAW         -3.6920     2.6050     0.7080 c6         1 A9F       0.166300
      7 NBO         -4.2190     1.7510     1.7530 n3         1 A9F      -0.726600
      8 CAZ         -3.1860     0.9640     2.3840 c3         1 A9F       0.213100
      9 CBH         -2.6570    -0.1070     1.4660 ca         1 A9F      -0.068300
     10 CAM         -1.2930    -0.3360     1.3390 ca         1 A9F      -0.110000
     11 CAO         -0.8160    -1.3500     0.5200 ca         1 A9F      -0.079000
     12 CAL         -3.5390    -0.9180     0.7530 ca         1 A9F      -0.110000
     13 CAN         -3.0700    -1.9440    -0.0470 ca         1 A9F      -0.079000
     14 CBJ         -1.7000    -2.1620    -0.1830 ca         1 A9F      -0.147600
     15 CBE         -1.2170    -3.3070    -1.0110 c          1 A9F       0.613700
     16 OAF         -1.8140    -4.3750    -1.0250 o          1 A9F      -0.605100
     17 NBB         -0.0900    -3.0750    -1.7060 ns         1 A9F      -0.507900
     18 CAX          0.6140    -4.0890    -2.4530 c3         1 A9F       0.148300
     19 CBG          2.1100    -3.9270    -2.3400 ca         1 A9F      -0.096300
     20 CAP          2.6900    -3.4180    -1.1820 ca         1 A9F      -0.076000
     21 CAJ          2.9310    -4.3030    -3.3970 ca         1 A9F      -0.100000
     22 CAI          4.3090    -4.1730    -3.2910 ca         1 A9F      -0.108000
     23 CAK          4.8760    -3.6420    -2.1410 ca         1 A9F      -0.107000
     24 CBI          4.0670    -3.2540    -1.0770 ca         1 A9F      -0.093300
     25 CAY          4.6920    -2.6660     0.1590 c3         1 A9F       0.211900
     26 OBD          3.7490    -1.8630     0.8220 os         1 A9F      -0.472000
     27 CBM          4.2690    -0.9190     1.7340 c5         1 A9F       0.155300
     28 CAS          4.5860    -1.5130     3.1020 c5         1 A9F      -0.108400
     29 CAQ          3.2450    -1.5530     3.8690 c5         1 A9F      -0.069400
     30 CAR          2.2460    -0.7450     3.0230 c5         1 A9F      -0.093400
     31 CBL          3.1230     0.0440     2.0440 c5         1 A9F       0.110700
     32 NBC          2.4530     0.4790     0.8420 ns         1 A9F      -0.490900
     33 CBF          1.8490     1.6670     0.7110 c          1 A9F       0.620300
     34 OAG          1.8090     2.5080     1.5940 o          1 A9F      -0.608100
     35 CBK          1.2120     1.9270    -0.6330 ce         1 A9F      -0.117900
     36 CAH          1.1230     0.8190    -1.5230 cg         1 A9F       0.311700
     37 NAE          1.0800    -0.1490    -2.1470 n1         1 A9F      -0.487000
     38 CBA          0.7550     3.1590    -0.9060 c2         1 A9F      -0.064200
     39 CBP          0.1180     3.7540    -2.1220 c3         1 A9F      -0.029800
     40 CAC          0.0140     2.8380    -3.3360 c3         1 A9F      -0.087100
     41 CAD         -1.2900     4.2030    -1.6990 c3         1 A9F      -0.087100
     42 CAB          0.9560     4.9900    -2.4840 c3         1 A9F      -0.087100
     43 H1          -4.3640     3.2760     3.2250 h1         1 A9F       0.039700
     44 H2          -5.4130     1.8700     3.4550 h1         1 A9F       0.039700
     45 H3          -6.8190     2.5000     1.5790 h1         1 A9F       0.037450
     46 H4          -6.6750     3.8580     2.7000 h1         1 A9F       0.037450
     47 H6          -7.2120     5.4330     0.9990 h1         1 A9F       0.030367
     48 H7          -6.2230     5.5320    -0.4590 h1         1 A9F       0.030367
     49 H8          -7.3660     4.1940    -0.2560 h1         1 A9F       0.030367
     50 H9          -5.4360     2.5980    -0.5410 h1         1 A9F       0.037450
     51 H10         -4.3880     4.0050    -0.7540 h1         1 A9F       0.037450
     52 H11         -3.1470     1.9950    -0.0150 h1         1 A9F       0.039700
     53 H12         -2.9760     3.3400     1.1160 h1         1 A9F       0.039700
     54 H14         -2.3480     1.5800     2.7520 h1         1 A9F       0.042700
     55 H15         -3.6160     0.4800     3.2670 h1         1 A9F       0.042700
     56 H16         -0.5940     0.2760     1.8970 ha         1 A9F       0.123500
     57 H17          0.2510    -1.5220     0.4580 ha         1 A9F       0.123500
     58 H18         -4.6040    -0.7370     0.8300 ha         1 A9F       0.123500
     59 H19         -3.7700    -2.5750    -0.5790 ha         1 A9F       0.123500
     60 H20          0.2340    -2.1220    -1.8100 hn         1 A9F       0.337500
     61 H21          0.3150    -5.0640    -2.0650 h1         1 A9F       0.061200
     62 H22          0.3230    -4.0730    -3.5080 h1         1 A9F       0.061200
     63 H23          2.0560    -3.1380    -0.3520 ha         1 A9F       0.128000
     64 H24          2.4950    -4.6900    -4.3100 ha         1 A9F       0.114000
     65 H25          4.9430    -4.4640    -4.1190 ha         1 A9F       0.113000
     66 H26          5.9500    -3.5130    -2.0790 ha         1 A9F       0.109000
     67 H27          5.0530    -3.4720     0.8120 h1         1 A9F       0.033200
     68 H28          5.5740    -2.0790    -0.1270 h1         1 A9F       0.033200
     69 H29          5.1310    -0.4050     1.2890 h1         1 A9F       0.049700
     70 H30          5.0630    -2.4920     3.0250 hc         1 A9F       0.051700
     71 H31          5.2980    -0.8590     3.6070 hc         1 A9F       0.051700
     72 H32          2.8940    -2.5740     4.0120 hc         1 A9F       0.047700
     73 H33          3.3620    -1.1210     4.8630 hc         1 A9F       0.047700
     74 H34          1.5890    -1.4140     2.4650 hc         1 A9F       0.057200
     75 H35          1.6100    -0.0900     3.6180 hc         1 A9F       0.057200
     76 H36          3.5420     0.9170     2.5490 h1         1 A9F       0.080700
     77 H37          2.4750    -0.1710     0.0700 hn         1 A9F       0.337500
     78 H39          0.8720     3.8670    -0.0900 ha         1 A9F       0.204000
     79 H41         -0.6350     1.9820    -3.1560 hc         1 A9F       0.043144
     80 H42         -0.4190     3.4000    -4.1650 hc         1 A9F       0.043144
     81 H43          0.9890     2.4750    -3.6630 hc         1 A9F       0.043144
     82 H44         -1.2650     4.8680    -0.8350 hc         1 A9F       0.043144
     83 H45         -1.7710     4.7350    -2.5210 hc         1 A9F       0.043144
     84 H46         -1.9130     3.3440    -1.4470 hc         1 A9F       0.043144
     85 H47          1.9740     4.7130    -2.7600 hc         1 A9F       0.043144
     86 H48          0.5050     5.5040    -3.3340 hc         1 A9F       0.043144
     87 H49          1.0100     5.6980    -1.6550 hc         1 A9F       0.043144
@<TRIPOS>BOND
     1     1     2 1   
     2     1     7 1   
     3     1    43 1   
     4     1    44 1   
     5     2     3 1   
     6     2    45 1   
     7     2    46 1   
     8     3     4 1   
     9     3     5 1   
    10     4    47 1   
    11     4    48 1   
    12     4    49 1   
    13     5     6 1   
    14     5    50 1   
    15     5    51 1   
    16     6     7 1   
    17     6    52 1   
    18     6    53 1   
    19     7     8 1   
    20     8     9 1   
    21     8    54 1   
    22     8    55 1   
    23     9    10 ar  
    24     9    12 ar  
    25    10    11 ar  
    26    10    56 1   
    27    11    14 ar  
    28    11    57 1   
    29    12    13 ar  
    30    12    58 1   
    31    13    14 ar  
    32    13    59 1   
    33    14    15 1   
    34    15    16 2   
    35    15    17 1   
    36    17    18 1   
    37    17    60 1   
    38    18    19 1   
    39    18    61 1   
    40    18    62 1   
    41    19    20 ar  
    42    19    21 ar  
    43    20    24 ar  
    44    20    63 1   
    45    21    22 ar  
    46    21    64 1   
    47    22    23 ar  
    48    22    65 1   
    49    23    24 ar  
    50    23    66 1   
    51    24    25 1   
    52    25    26 1   
    53    25    67 1   
    54    25    68 1   
    55    26    27 1   
    56    27    28 1   
    57    27    31 1   
    58    27    69 1   
    59    28    29 1   
    60    28    70 1   
    61    28    71 1   
    62    29    30 1   
    63    29    72 1   
    64    29    73 1   
    65    30    31 1   
    66    30    74 1   
    67    30    75 1   
    68    31    32 1   
    69    31    76 1   
    70    32    33 1   
    71    32    77 1   
    72    33    34 2   
    73    33    35 1   
    74    35    36 1   
    75    35    38 2   
    76    36    37 3   
    77    38    39 1   
    78    38    78 1   
    79    39    40 1   
    80    39    41 1   
    81    39    42 1   
    82    40    79 1   
    83    40    80 1   
    84    40    81 1   
    85    41    82 1   
    86    41    83 1   
    87    41    84 1   
    88    42    85 1   
    89    42    86 1   
    90    42    87 1   
@<TRIPOS>SUBSTRUCTURE
     1 A9F         1 TEMP              0 ****  ****    0 ROOT
