@<TRIPOS>MOLECULE
A9F
   87    90     1     0     0
SMALL
No Charge or Current Charge


@<TRIPOS>ATOM
      1 CAV         -4.8350     2.4410     2.6600 c6         1 A9F       0.166300
      2 CAT         -5.1580     3.8460     2.0580 c6         1 A9F       0.163300
      3 NBN         -3.9220     4.5930     1.6740 n3         1 A9F      -0.717600
      4 CAA         -4.2100     5.9350     1.1260 c3         1 A9F       0.153100
      5 CAU         -3.0920     3.7610     0.7530 c6         1 A9F       0.163300
      6 CAW         -2.7730     2.3480     1.3390 c6         1 A9F       0.166300
      7 NBO         -4.0070     1.6000     1.7410 n3         1 A9F      -0.726600
      8 CAZ         -3.7210     0.2630     2.3160 c3         1 A9F       0.213100
      9 CBH         -3.0720    -0.7140     1.3370 ca         1 A9F      -0.068300
     10 CAM         -1.6720    -0.8280     1.2650 ca         1 A9F      -0.110000
     11 CAO         -1.0760    -1.7530     0.3920 ca         1 A9F      -0.079000
     12 CAL         -3.8700    -1.5430     0.5270 ca         1 A9F      -0.110000
     13 CAN         -3.2770    -2.4800    -0.3390 ca         1 A9F      -0.079000
     14 CBJ         -1.8730    -2.5920    -0.4240 ca         1 A9F      -0.147600
     15 CBE         -1.2520    -3.6250    -1.3380 c          1 A9F       0.613700
     16 OAF         -1.8550    -4.6180    -1.7220 o          1 A9F      -0.605100
     17 NBB          0.0610    -3.4080    -1.6710 ns         1 A9F      -0.507900
     18 CAX          0.9360    -4.3630    -2.3450 c3         1 A9F       0.148300
     19 CBG          2.3890    -3.9030    -2.2710 ca         1 A9F      -0.096300
     20 CAP          2.9050    -3.3770    -1.0690 ca         1 A9F      -0.076000
     21 CAJ          3.2190    -3.9640    -3.4060 ca         1 A9F      -0.100000
     22 CAI          4.5420    -3.4920    -3.3410 ca         1 A9F      -0.108000
     23 CAK          5.0380    -2.9390    -2.1480 ca         1 A9F      -0.107000
     24 CBI          4.2180    -2.8730    -1.0050 ca         1 A9F      -0.093300
     25 CAY          4.7160    -2.2240     0.2820 c3         1 A9F       0.211900
     26 OBD          3.7140    -1.2800     0.7050 os         1 A9F      -0.472000
     27 CBM          3.9770    -0.4610     1.8810 c5         1 A9F       0.155300
     28 CAS          3.9210    -1.3860     3.1490 c5         1 A9F      -0.108400
     29 CAQ          2.8500    -0.7230     4.0650 c5         1 A9F      -0.069400
     30 CAR          1.8260    -0.2200     3.0210 c5         1 A9F      -0.093400
     31 CBL          2.7890     0.5600     2.0900 c5         1 A9F       0.110700
     32 NBC          2.0950     0.6850     0.8000 ns         1 A9F      -0.490900
     33 CBF          1.1650     1.6900     0.6050 c          1 A9F       0.620300
     34 OAG          0.9350     2.5310     1.4640 o          1 A9F      -0.608100
     35 CBK          0.5280     1.7410    -0.7560 ce         1 A9F      -0.117900
     36 CAH          0.6150     0.5560    -1.5530 cg         1 A9F       0.311700
     37 NAE          0.7260    -0.4320    -2.1620 n1         1 A9F      -0.487000
     38 CBA         -0.0230     2.8990    -1.2210 c2         1 A9F      -0.064200
     39 CBP         -0.6890     3.2090    -2.5740 c3         1 A9F      -0.029800
     40 CAC          0.3290     3.0540    -3.7360 c3         1 A9F      -0.087100
     41 CAD         -1.9190     2.2910    -2.8110 c3         1 A9F      -0.087100
     42 CAB         -1.1820     4.6820    -2.5660 c3         1 A9F      -0.087100
     43 H1          -4.3090     2.5850     3.6160 h1         1 A9F       0.039700
     44 H2          -5.7830     1.9340     2.8890 h1         1 A9F       0.039700
     45 H3          -5.8060     3.7100     1.1800 h1         1 A9F       0.037450
     46 H4          -5.7350     4.4210     2.7970 h1         1 A9F       0.037450
     47 H6          -4.7790     6.5350     1.8500 h1         1 A9F       0.030367
     48 H7          -3.2770     6.4700     0.9020 h1         1 A9F       0.030367
     49 H8          -4.7970     5.8640     0.2010 h1         1 A9F       0.030367
     50 H9          -3.6130     3.6310    -0.2070 h1         1 A9F       0.037450
     51 H10         -2.1420     4.2710     0.5390 h1         1 A9F       0.037450
     52 H11         -2.2120     1.7840     0.5810 h1         1 A9F       0.039700
     53 H12         -2.1070     2.4730     2.2060 h1         1 A9F       0.039700
     54 H14         -3.0710     0.3650     3.1970 h1         1 A9F       0.042700
     55 H15         -4.6560    -0.1910     2.6710 h1         1 A9F       0.042700
     56 H16         -1.0450    -0.2040     1.8970 ha         1 A9F       0.123500
     57 H17          0.0090    -1.8310     0.3850 ha         1 A9F       0.123500
     58 H18         -4.9540    -1.4700     0.5770 ha         1 A9F       0.123500
     59 H19         -3.9140    -3.1180    -0.9480 ha         1 A9F       0.123500
     60 H20          0.4460    -2.5030    -1.4290 hn         1 A9F       0.337500
     61 H21          0.8390    -5.3460    -1.8640 h1         1 A9F       0.061200
     62 H22          0.6190    -4.4580    -3.3920 h1         1 A9F       0.061200
     63 H23          2.2770    -3.3310    -0.1820 ha         1 A9F       0.128000
     64 H24          2.8390    -4.3690    -4.3420 ha         1 A9F       0.114000
     65 H25          5.1780    -3.5380    -4.2230 ha         1 A9F       0.113000
     66 H26          6.0550    -2.5550    -2.1150 ha         1 A9F       0.109000
     67 H27          4.8780    -2.9990     1.0410 h1         1 A9F       0.033200
     68 H28          5.6720    -1.7150     0.1000 h1         1 A9F       0.033200
     69 H29          4.9400     0.0550     1.7640 h1         1 A9F       0.049700
     70 H30          3.6180    -2.4090     2.8980 hc         1 A9F       0.051700
     71 H31          4.8940    -1.4550     3.6480 hc         1 A9F       0.051700
     72 H32          2.4110    -1.4360     4.7730 hc         1 A9F       0.047700
     73 H33          3.2720     0.1020     4.6520 hc         1 A9F       0.047700
     74 H34          1.3260    -1.0550     2.5150 hc         1 A9F       0.057200
     75 H35          1.0540     0.4200     3.4620 hc         1 A9F       0.057200
     76 H36          3.1290     1.5130     2.5210 h1         1 A9F       0.080700
     77 H37          2.2810     0.0440     0.0360 hn         1 A9F       0.337500
     78 H39         -0.0010     3.7670    -0.5580 ha         1 A9F       0.204000
     79 H41          0.6470     2.0150    -3.8670 hc         1 A9F       0.043144
     80 H42         -0.1120     3.3810    -4.6860 hc         1 A9F       0.043144
     81 H43          1.2230     3.6620    -3.5530 hc         1 A9F       0.043144
     82 H44         -2.6160     2.3430    -1.9670 hc         1 A9F       0.043144
     83 H45         -2.4630     2.5940    -3.7150 hc         1 A9F       0.043144
     84 H46         -1.6300     1.2430    -2.9450 hc         1 A9F       0.043144
     85 H47         -0.3480     5.3750    -2.4010 hc         1 A9F       0.043144
     86 H48         -1.6510     4.9460    -3.5220 hc         1 A9F       0.043144
     87 H49         -1.9230     4.8490    -1.7760 hc         1 A9F       0.043144
@<TRIPOS>BOND
     1     1     2 1   
     2     1     7 1   
     3     1    43 1   
     4     1    44 1   
     5     2     3 1   
     6     2    45 1   
     7     2    46 1   
     8     3     4 1   
     9     3     5 1   
    10     4    47 1   
    11     4    48 1   
    12     4    49 1   
    13     5     6 1   
    14     5    50 1   
    15     5    51 1   
    16     6     7 1   
    17     6    52 1   
    18     6    53 1   
    19     7     8 1   
    20     8     9 1   
    21     8    54 1   
    22     8    55 1   
    23     9    10 ar  
    24     9    12 ar  
    25    10    11 ar  
    26    10    56 1   
    27    11    14 ar  
    28    11    57 1   
    29    12    13 ar  
    30    12    58 1   
    31    13    14 ar  
    32    13    59 1   
    33    14    15 1   
    34    15    16 2   
    35    15    17 1   
    36    17    18 1   
    37    17    60 1   
    38    18    19 1   
    39    18    61 1   
    40    18    62 1   
    41    19    20 ar  
    42    19    21 ar  
    43    20    24 ar  
    44    20    63 1   
    45    21    22 ar  
    46    21    64 1   
    47    22    23 ar  
    48    22    65 1   
    49    23    24 ar  
    50    23    66 1   
    51    24    25 1   
    52    25    26 1   
    53    25    67 1   
    54    25    68 1   
    55    26    27 1   
    56    27    28 1   
    57    27    31 1   
    58    27    69 1   
    59    28    29 1   
    60    28    70 1   
    61    28    71 1   
    62    29    30 1   
    63    29    72 1   
    64    29    73 1   
    65    30    31 1   
    66    30    74 1   
    67    30    75 1   
    68    31    32 1   
    69    31    76 1   
    70    32    33 1   
    71    32    77 1   
    72    33    34 2   
    73    33    35 1   
    74    35    36 1   
    75    35    38 2   
    76    36    37 3   
    77    38    39 1   
    78    38    78 1   
    79    39    40 1   
    80    39    41 1   
    81    39    42 1   
    82    40    79 1   
    83    40    80 1   
    84    40    81 1   
    85    41    82 1   
    86    41    83 1   
    87    41    84 1   
    88    42    85 1   
    89    42    86 1   
    90    42    87 1   
@<TRIPOS>SUBSTRUCTURE
     1 A9F         1 TEMP              0 ****  ****    0 ROOT
