@<TRIPOS>MOLECULE
A9G
   77    81     1     0     0
SMALL
No Charge or Current Charge


@<TRIPOS>ATOM
      1 C24          0.4810    -0.7040    -0.8520 ca         1 A9G      -0.111000
      2 C25         -0.8430    -1.1010    -0.5100 cp         1 A9G      -0.010000
      3 C26         -1.9440    -0.0940    -0.3900 cp         1 A9G      -0.137000
      4 C28         -3.0550     1.9610    -1.0480 ca         1 A9G      -0.230000
      5 C27         -1.9960     1.0560    -1.2110 ca         1 A9G      -0.026000
      6 C19          4.9730     4.3410     1.1820 cc         1 A9G       0.081400
      7 C22          4.3400     3.2630    -0.9060 c          1 A9G       0.557200
      8 C18          5.3140     3.1440     1.7660 cd         1 A9G      -0.303000
      9 C16          5.1880     1.9070     1.0340 cd         1 A9G       0.045800
     10 C10          1.5460    -1.6350    -0.9750 ca         1 A9G      -0.097600
     11 C15          4.7130     1.9730    -0.2720 cc         1 A9G      -0.262400
     12 C14          4.5310     0.7600    -1.1550 c3         1 A9G       0.168200
     13 C02         -1.5480    -5.5050     1.6490 c3         1 A9G      -0.092400
     14 C03         -1.2970    -5.5140     0.1180 c3         1 A9G       0.092300
     15 C04         -1.3020    -6.9400    -0.4850 c3         1 A9G      -0.105100
     16 C06          1.2400    -5.2960    -0.3420 cc         1 A9G      -0.162100
     17 C07          2.0480    -4.2100    -0.6470 cd         1 A9G      -0.124400
     18 C08          3.5460    -4.3240    -0.7660 c3         1 A9G      -0.017900
     19 C09          1.2390    -2.9950    -0.7210 ca         1 A9G      -0.056800
     20 C29         -4.0410     1.7080    -0.0770 ca         1 A9G       0.612900
     21 C31         -5.1310     3.9710    -0.3960 c6         1 A9G       0.175800
     22 C32         -6.1010     4.9310     0.3680 c6         1 A9G       0.137800
     23 C34         -7.4400     3.0380     1.1520 c6         1 A9G       0.137800
     24 C35         -6.5070     2.0270     0.4090 c6         1 A9G       0.175800
     25 C37         -2.9910    -0.2500     0.5530 ca         1 A9G       0.391900
     26 C38         -1.0940    -2.4780    -0.2920 ca         1 A9G      -0.110000
     27 C39         -0.0390    -3.3960    -0.4100 ca         1 A9G      -0.047200
     28 N05         -0.0570    -4.7730    -0.2170 na         1 A9G      -0.088700
     29 N21          4.5060     4.3580    -0.1080 ns         1 A9G      -0.365100
     30 N30         -5.1300     2.5750     0.1520 nh         1 A9G      -0.770300
     31 N33         -7.4790     4.3790     0.5000 n7         1 A9G      -0.839400
     32 N36         -4.0110     0.6220     0.7110 nb         1 A9G      -0.749000
     33 H1           0.6740     0.3490    -1.0360 ha         1 A9G       0.125000
     34 H2          -3.1070     2.8380    -1.6840 ha         1 A9G       0.122000
     35 H3          -1.2400     1.2370    -1.9720 ha         1 A9G       0.126000
     36 H4           4.0710     6.1710     1.8760 hc         1 A9G       0.060367
     37 H5           5.4350     5.6170     2.8580 hc         1 A9G       0.060367
     38 H6           5.7320     6.3550     1.2760 hc         1 A9G       0.060367
     39 H7           5.6830     3.1350     2.7880 ha         1 A9G       0.197000
     40 H8           5.8430     0.7510     2.7500 hc         1 A9G       0.053367
     41 H9           4.7390    -0.1100     1.6740 hc         1 A9G       0.053367
     42 H10          6.4280     0.1450     1.1960 hc         1 A9G       0.053367
     43 H12          4.5460     1.0310    -2.2180 h1         1 A9G       0.060700
     44 H13          5.3620     0.0600    -0.9930 h1         1 A9G       0.060700
     45 H14         -3.0660    -5.9210     3.1580 hc         1 A9G       0.036367
     46 H15         -3.7340    -5.5110     1.5650 hc         1 A9G       0.036367
     47 H16         -3.0210    -7.1180     1.8520 hc         1 A9G       0.036367
     48 H17         -1.4620    -4.4740     2.0150 hc         1 A9G       0.051200
     49 H18         -0.7600    -6.0800     2.1520 hc         1 A9G       0.051200
     50 H19         -2.1290    -4.9830    -0.3590 h1         1 A9G       0.063700
     51 H20         -0.5710    -7.5850     0.0170 hc         1 A9G       0.046700
     52 H21         -2.2910    -7.4030    -0.3870 hc         1 A9G       0.046700
     53 H22         -1.0580    -6.9060    -1.5540 hc         1 A9G       0.046700
     54 H23          1.4810    -6.3420    -0.1860 h4         1 A9G       0.210000
     55 H24          3.8630    -4.3120    -1.8150 hc         1 A9G       0.041367
     56 H25          4.0540    -3.5110    -0.2340 hc         1 A9G       0.041367
     57 H26          3.9040    -5.2650    -0.3300 hc         1 A9G       0.041367
     58 H27         -5.4160     3.9510    -1.4590 h1         1 A9G       0.049950
     59 H28         -4.1210     4.4050    -0.3380 h1         1 A9G       0.049950
     60 H29         -5.6890     5.1190     1.3720 h1         1 A9G       0.061700
     61 H30         -6.1360     5.9000    -0.1520 h1         1 A9G       0.061700
     62 H31         -8.4560     2.6200     1.2050 h1         1 A9G       0.061700
     63 H32         -7.0820     3.1490     2.1870 h1         1 A9G       0.061700
     64 H33         -6.4680     1.1100     1.0150 h1         1 A9G       0.049950
     65 H34         -6.9750     1.7550    -0.5490 h1         1 A9G       0.049950
     66 H35         -3.0040    -1.1090     1.2230 h4         1 A9G       0.014100
     67 H36         -2.0950    -2.8150    -0.0390 ha         1 A9G       0.113000
     68 H37          2.6420     0.4980    -0.1970 hn         1 A9G       0.318500
     69 H38         -7.8670     4.2620    -0.4440 hn         1 A9G       0.403000
     70 H11          4.2540     5.2410    -0.5340 hn         1 A9G       0.324500
     71 C11          2.9150    -1.1420    -1.3870 c          1 A9G       0.619700
     72 C01         -2.9280    -6.0490     2.0780 c3         1 A9G      -0.089100
     73 N13          3.2790     0.0760    -0.8600 ns         1 A9G      -0.499900
     74 O12          3.6250    -1.7160    -2.2010 o          1 A9G      -0.601100
     75 O23          3.9120     3.3880    -2.0440 o          1 A9G      -0.562000
     76 C20          5.0570     5.6940     1.8320 c3         1 A9G      -0.072900
     77 C17          5.5690     0.6050     1.6980 c3         1 A9G      -0.065900
@<TRIPOS>BOND
     1     1     2 ar  
     2     1    10 ar  
     3     1    33 1   
     4     2     3 1   
     5     2    26 ar  
     6     3     5 ar  
     7     3    25 ar  
     8     4     5 ar  
     9     4    20 ar  
    10     4    34 1   
    11     5    35 1   
    12     6     8 2   
    13     6    29 1   
    14     6    76 1   
    15     7    11 1   
    16     7    29 1   
    17     7    75 2   
    18     8     9 1   
    19     8    39 1   
    20     9    11 2   
    21     9    77 1   
    22    10    19 ar  
    23    10    71 1   
    24    11    12 1   
    25    12    43 1   
    26    12    44 1   
    27    12    73 1   
    28    13    14 1   
    29    13    48 1   
    30    13    49 1   
    31    13    72 1   
    32    14    15 1   
    33    14    28 1   
    34    14    50 1   
    35    15    51 1   
    36    15    52 1   
    37    15    53 1   
    38    16    17 2   
    39    16    28 1   
    40    16    54 1   
    41    17    18 1   
    42    17    19 1   
    43    18    55 1   
    44    18    56 1   
    45    18    57 1   
    46    19    27 ar  
    47    20    30 1   
    48    20    32 ar  
    49    21    22 1   
    50    21    30 1   
    51    21    58 1   
    52    21    59 1   
    53    22    31 1   
    54    22    60 1   
    55    22    61 1   
    56    23    24 1   
    57    23    31 1   
    58    23    62 1   
    59    23    63 1   
    60    24    30 1   
    61    24    64 1   
    62    24    65 1   
    63    25    32 ar  
    64    25    66 1   
    65    26    27 ar  
    66    26    67 1   
    67    27    28 1   
    68    29    70 1   
    69    31    69 1   
    70    36    76 1   
    71    37    76 1   
    72    38    76 1   
    73    40    77 1   
    74    41    77 1   
    75    42    77 1   
    76    45    72 1   
    77    46    72 1   
    78    47    72 1   
    79    68    73 1   
    80    71    73 1   
    81    71    74 2   
@<TRIPOS>SUBSTRUCTURE
     1 A9G         1 TEMP              0 ****  ****    0 ROOT
