@<TRIPOS>MOLECULE
A9G
   77    81     1     0     0
SMALL
bcc


@<TRIPOS>ATOM
      1 C24          0.4220    -0.6790    -0.7000 ca         1 A9G      -0.129000
      2 C25         -0.9100    -1.0450    -0.4200 cp         1 A9G      -0.010000
      3 C26         -1.9590    -0.0150    -0.3640 cp         1 A9G      -0.202300
      4 C28         -2.9590     2.0480    -1.1250 ca         1 A9G      -0.313300
      5 C27         -1.9540     1.1100    -1.1940 ca         1 A9G      -0.044000
      6 C19          4.5970     4.2470     1.3030 cc         1 A9G       0.081400
      7 C22          3.6680     2.8350    -0.4490 c          1 A9G       0.699700
      8 C18          5.4600     3.2650     1.6770 cd         1 A9G      -0.253000
      9 C16          5.4630     2.0200     0.9980 cd         1 A9G       0.045800
     10 C10          1.4340    -1.6130    -0.8120 ca         1 A9G      -0.097600
     11 C15          4.6000     1.8100    -0.0480 cc         1 A9G      -0.262400
     12 C14          4.5320     0.5270    -0.8190 c3         1 A9G       0.168200
     13 C02         -1.2110    -6.0710     1.6650 c3         1 A9G      -0.092400
     14 C03         -1.4010    -5.4640     0.2730 c3         1 A9G       0.063000
     15 C04         -1.7120    -6.4990    -0.8000 c3         1 A9G      -0.105100
     16 C06          1.0290    -5.1720    -0.2700 cc         1 A9G      -0.112100
     17 C07          1.9150    -4.1770    -0.5760 cd         1 A9G      -0.124400
     18 C08          3.3810    -4.3580    -0.7900 c3         1 A9G      -0.017900
     19 C09          1.1450    -2.9700    -0.6020 ca         1 A9G      -0.056800
     20 C29         -4.0020     1.8640    -0.1950 ca         1 A9G       0.678200
     21 C31         -5.1350     3.9150    -0.9110 c6         1 A9G       0.175800
     22 C32         -5.9430     5.0260    -0.2460 c6         1 A9G       0.137800
     23 C34         -7.0580     3.4600     1.1460 c6         1 A9G       0.137800
     24 C35         -6.2940     2.3080     0.5100 c6         1 A9G       0.175800
     25 C37         -3.0380    -0.1010     0.5090 ca         1 A9G       0.457200
     26 C38         -1.2160    -2.3820    -0.2150 ca         1 A9G      -0.128000
     27 C39         -0.1910    -3.3230    -0.2870 ca         1 A9G      -0.047200
     28 N05         -0.2350    -4.6740    -0.1010 na         1 A9G      -0.059400
     29 N21          3.7480     4.0080     0.2740 ns         1 A9G      -0.432100
     30 N30         -5.0220     2.7650    -0.0330 nh         1 A9G      -0.770300
     31 N33         -7.2310     4.6030     0.2680 n7         1 A9G      -0.784200
     32 N36         -4.0160     0.7850     0.5910 nb         1 A9G      -0.749000
     33 H1           0.6600     0.3680    -0.8520 ha         1 A9G       0.143000
     34 H2          -2.9400     2.8860    -1.8050 ha         1 A9G       0.140000
     35 H3          -1.1730     1.2420    -1.9330 ha         1 A9G       0.144000
     36 H4           3.5200     5.7440     2.3840 hc         1 A9G       0.060367
     37 H5           5.2450     5.6680     2.7540 hc         1 A9G       0.060367
     38 H6           4.6920     6.3830     1.2360 hc         1 A9G       0.060367
     39 H7           6.1400     3.4370     2.5000 ha         1 A9G       0.147000
     40 H8           6.9070     1.2530     2.3890 hc         1 A9G       0.053367
     41 H9           5.9480     0.0050     1.5990 hc         1 A9G       0.053367
     42 H10          7.2250     0.8240     0.7130 hc         1 A9G       0.053367
     43 H12          4.5070     0.7390    -1.8890 h1         1 A9G       0.060700
     44 H13          5.4170    -0.0870    -0.6450 h1         1 A9G       0.060700
     45 H14         -2.3130    -7.0650     3.2350 hc         1 A9G       0.036367
     46 H15         -3.3070    -6.0180     2.2300 hc         1 A9G       0.036367
     47 H16         -2.7790    -7.5870     1.6260 hc         1 A9G       0.036367
     48 H17         -0.8880    -5.2760     2.3430 hc         1 A9G       0.051200
     49 H18         -0.4010    -6.8060     1.6380 hc         1 A9G       0.051200
     50 H19         -2.2380    -4.7650     0.3250 h1         1 A9G       0.063700
     51 H20         -0.9380    -7.2670    -0.8540 hc         1 A9G       0.046700
     52 H21         -2.6570    -6.9980    -0.5880 hc         1 A9G       0.046700
     53 H22         -1.7980    -6.0280    -1.7790 hc         1 A9G       0.046700
     54 H23          1.2230    -6.2270    -0.1540 h4         1 A9G       0.160000
     55 H24          3.6800    -4.1310    -1.8130 hc         1 A9G       0.041367
     56 H25          3.9670    -3.7080    -0.1370 hc         1 A9G       0.041367
     57 H26          3.6750    -5.3860    -0.5750 hc         1 A9G       0.041367
     58 H27         -5.6010     3.6330    -1.8670 h1         1 A9G       0.049950
     59 H28         -4.1470     4.3140    -1.1360 h1         1 A9G       0.049950
     60 H29         -5.3600     5.4320     0.5860 h1         1 A9G       0.061700
     61 H30         -6.0830     5.8340    -0.9650 h1         1 A9G       0.061700
     62 H31         -8.0360     3.1000     1.4700 h1         1 A9G       0.061700
     63 H32         -6.5250     3.7920     2.0430 h1         1 A9G       0.061700
     64 H33         -6.1120     1.5330     1.2490 h1         1 A9G       0.049950
     65 H34         -6.9030     1.8630    -0.2900 h1         1 A9G       0.049950
     66 H35         -3.1100    -0.9370     1.1990 h4         1 A9G       0.014100
     67 H36         -2.2370    -2.6860    -0.0260 ha         1 A9G       0.131000
     68 H37          2.8600     0.0450     0.3910 hn         1 A9G       0.318500
     69 H38         -7.8280     4.3370    -0.5080 hn         1 A9G       0.347800
     70 H11          3.1030     4.7390     0.0010 hn         1 A9G       0.324500
     71 C11          2.7830    -1.1410    -1.2490 c          1 A9G       0.686700
     72 C01         -2.4730    -6.7210     2.2130 c3         1 A9G      -0.089100
     73 N13          3.3300    -0.2050    -0.4640 ns         1 A9G      -0.566900
     74 O12          3.3140    -1.5560    -2.2710 o          1 A9G      -0.601100
     75 O23          2.8470     2.7280    -1.3580 o          1 A9G      -0.637500
     76 C20          4.5110     5.5830     1.9560 c3         1 A9G      -0.072900
     77 C17          6.4340     0.9690     1.4510 c3         1 A9G      -0.065900
@<TRIPOS>BOND
     1     1     2 ar  
     2     1    10 ar  
     3     1    33 1   
     4     2     3 1   
     5     2    26 ar  
     6     3     5 ar  
     7     3    25 ar  
     8     4     5 ar  
     9     4    20 ar  
    10     4    34 1   
    11     5    35 1   
    12     6     8 2   
    13     6    29 1   
    14     6    76 1   
    15     7    11 1   
    16     7    29 1   
    17     7    75 2   
    18     8     9 1   
    19     8    39 1   
    20     9    11 2   
    21     9    77 1   
    22    10    19 ar  
    23    10    71 1   
    24    11    12 1   
    25    12    43 1   
    26    12    44 1   
    27    12    73 1   
    28    13    14 1   
    29    13    48 1   
    30    13    49 1   
    31    13    72 1   
    32    14    15 1   
    33    14    28 1   
    34    14    50 1   
    35    15    51 1   
    36    15    52 1   
    37    15    53 1   
    38    16    17 2   
    39    16    28 1   
    40    16    54 1   
    41    17    18 1   
    42    17    19 1   
    43    18    55 1   
    44    18    56 1   
    45    18    57 1   
    46    19    27 ar  
    47    20    30 1   
    48    20    32 ar  
    49    21    22 1   
    50    21    30 1   
    51    21    58 1   
    52    21    59 1   
    53    22    31 1   
    54    22    60 1   
    55    22    61 1   
    56    23    24 1   
    57    23    31 1   
    58    23    62 1   
    59    23    63 1   
    60    24    30 1   
    61    24    64 1   
    62    24    65 1   
    63    25    32 ar  
    64    25    66 1   
    65    26    27 ar  
    66    26    67 1   
    67    27    28 1   
    68    29    70 1   
    69    31    69 1   
    70    36    76 1   
    71    37    76 1   
    72    38    76 1   
    73    40    77 1   
    74    41    77 1   
    75    42    77 1   
    76    45    72 1   
    77    46    72 1   
    78    47    72 1   
    79    68    73 1   
    80    71    73 1   
    81    71    74 2   
@<TRIPOS>SUBSTRUCTURE
     1 A9G         1 TEMP              0 ****  ****    0 ROOT
