@<TRIPOS>MOLECULE
A9H
   51    53     1     0     0
SMALL
abcg2


@<TRIPOS>ATOM
      1 O1          -4.6820    -1.7560     0.0640 o          1 A9H      -0.730500
      2 C1          -3.7750    -1.1950    -0.5830 c          1 A9H       0.714000
      3 O2          -3.3890    -1.5340    -1.7220 o          1 A9H      -0.730500
      4 C2          -3.0720     0.0460     0.0590 c6         1 A9H      -0.169000
      5 C3          -3.6600     0.3090     1.4450 c3         1 A9H      -0.050100
      6 C4          -3.3630     1.2540    -0.8490 c6         1 A9H      -0.057400
      7 C5          -2.5200     2.4740    -0.5070 c6         1 A9H      -0.072400
      8 C6          -1.0390     2.1480    -0.6340 c6         1 A9H      -0.060400
      9 C7          -0.5910     0.9800     0.2580 c6         1 A9H      -0.028000
     10 C8          -0.5110     1.4450     1.7160 c3         1 A9H      -0.073100
     11 C9          -1.5440    -0.2260     0.0450 c6         1 A9H      -0.032700
     12 C10         -1.1470    -1.3900     0.9500 c6         1 A9H      -0.042200
     13 C11          0.3250    -1.6450     0.9420 c2         1 A9H      -0.171200
     14 C12          1.2220    -0.8020     0.4150 ce         1 A9H      -0.115200
     15 C13          2.6420    -1.1340     0.3940 ce         1 A9H      -0.149000
     16 C14          0.8050     0.5050    -0.2190 c6         1 A9H      -0.013500
     17 C15          1.9300     1.5300    -0.0660 c6         1 A9H      -0.068400
     18 C16          3.2260     1.0090    -0.6710 c6         1 A9H      -0.031200
     19 C17          3.5930    -0.3410    -0.1180 c2         1 A9H      -0.142400
     20 C18          5.0400    -0.7590    -0.1450 c3         1 A9H      -0.014500
     21 C19          5.6260    -0.6630    -1.5550 c3         1 A9H      -0.082100
     22 C20          5.8760     0.0610     0.8410 c3         1 A9H      -0.082100
     23 H2          -3.5030    -0.5190     2.1360 hc         1 A9H       0.013700
     24 H3          -3.2530     1.2040     1.9130 hc         1 A9H       0.013700
     25 H4          -4.7380     0.4580     1.3680 hc         1 A9H       0.013700
     26 H5          -3.1580     0.9750    -1.8870 hc         1 A9H       0.042700
     27 H6          -4.4290     1.5000    -0.7960 hc         1 A9H       0.042700
     28 H7          -2.7710     3.2960    -1.1840 hc         1 A9H       0.018700
     29 H8          -2.7490     2.8350     0.5000 hc         1 A9H       0.018700
     30 H9          -0.8340     1.8880    -1.6810 hc         1 A9H       0.022700
     31 H10         -0.4390     3.0350    -0.4160 hc         1 A9H       0.022700
     32 H11         -1.4610     1.8280     2.0800 hc         1 A9H       0.024033
     33 H12         -0.2030     0.6420     2.3870 hc         1 A9H       0.024033
     34 H13          0.2130     2.2530     1.8270 hc         1 A9H       0.024033
     35 H14         -1.3470    -0.5520    -0.9830 hc         1 A9H       0.074700
     36 H15         -1.4810    -1.2260     1.9810 hc         1 A9H       0.061700
     37 H16         -1.6640    -2.3010     0.6300 hc         1 A9H       0.061700
     38 H17          0.6710    -2.5750     1.3850 ha         1 A9H       0.153000
     39 H18          2.9220    -2.1020     0.8040 ha         1 A9H       0.159000
     40 H19          0.7100     0.3190    -1.3000 hc         1 A9H       0.054700
     41 H20          1.6520     2.4720    -0.5440 hc         1 A9H       0.036200
     42 H21          2.1070     1.7500     0.9900 hc         1 A9H       0.036200
     43 H22          3.1310     0.9480    -1.7620 hc         1 A9H       0.034200
     44 H23          4.0320     1.7250    -0.4900 hc         1 A9H       0.034200
     45 H24          5.0920    -1.8070     0.1680 hc         1 A9H       0.042700
     46 H25          6.6570    -1.0210    -1.5660 hc         1 A9H       0.028700
     47 H26          5.0570    -1.2630    -2.2660 hc         1 A9H       0.028700
     48 H27          5.6340     0.3680    -1.9150 hc         1 A9H       0.028700
     49 H28          5.4960    -0.0340     1.8590 hc         1 A9H       0.028700
     50 H29          6.9140    -0.2770     0.8390 hc         1 A9H       0.028700
     51 H30          5.8800     1.1220     0.5810 hc         1 A9H       0.028700
@<TRIPOS>BOND
     1     1     2 1   
     2     2     3 1   
     3     2     4 1   
     4     4     5 1   
     5     4     6 1   
     6     4    11 1   
     7     5    23 1   
     8     5    24 1   
     9     5    25 1   
    10     6     7 1   
    11     6    26 1   
    12     6    27 1   
    13     7     8 1   
    14     7    28 1   
    15     7    29 1   
    16     8     9 1   
    17     8    30 1   
    18     8    31 1   
    19     9    10 1   
    20     9    11 1   
    21     9    16 1   
    22    10    32 1   
    23    10    33 1   
    24    10    34 1   
    25    11    12 1   
    26    11    35 1   
    27    12    13 1   
    28    12    36 1   
    29    12    37 1   
    30    13    14 2   
    31    13    38 1   
    32    14    15 1   
    33    14    16 1   
    34    15    19 2   
    35    15    39 1   
    36    16    17 1   
    37    16    40 1   
    38    17    18 1   
    39    17    41 1   
    40    17    42 1   
    41    18    19 1   
    42    18    43 1   
    43    18    44 1   
    44    19    20 1   
    45    20    21 1   
    46    20    22 1   
    47    20    45 1   
    48    21    46 1   
    49    21    47 1   
    50    21    48 1   
    51    22    49 1   
    52    22    50 1   
    53    22    51 1   
@<TRIPOS>SUBSTRUCTURE
     1 A9H         1 TEMP              0 ****  ****    0 ROOT
