@<TRIPOS>MOLECULE
A9H
   51    53     1     0     0
SMALL
No Charge or Current Charge


@<TRIPOS>ATOM
      1 O1          -4.2320    -2.1240     0.3580 o          1 A9H      -0.730500
      2 C1          -3.9470    -1.2510    -0.4520 c          1 A9H       0.714000
      3 O2          -4.5380    -1.1830    -1.5220 o          1 A9H      -0.730500
      4 C2          -3.1860     0.0350     0.0740 c6         1 A9H      -0.169000
      5 C3          -3.7670     0.3590     1.5020 c3         1 A9H      -0.050100
      6 C4          -3.4540     1.2600    -0.8760 c6         1 A9H      -0.057400
      7 C5          -2.5620     2.4900    -0.5830 c6         1 A9H      -0.072400
      8 C6          -1.0700     2.1320    -0.7490 c6         1 A9H      -0.060400
      9 C7          -0.6000     0.9690     0.1860 c6         1 A9H      -0.028000
     10 C8          -0.5200     1.4880     1.6690 c3         1 A9H      -0.073100
     11 C9          -1.6200    -0.2680     0.0220 c6         1 A9H      -0.032700
     12 C10         -1.1550    -1.4510     0.9240 c6         1 A9H      -0.042200
     13 C11          0.3460    -1.7040     0.8600 c2         1 A9H      -0.171200
     14 C12          1.2590    -0.8360     0.3630 ce         1 A9H      -0.115200
     15 C13          2.6950    -1.1720     0.3320 ce         1 A9H      -0.149000
     16 C14          0.8690     0.5120    -0.2770 c6         1 A9H      -0.013500
     17 C15          2.0000     1.5630    -0.0840 c6         1 A9H      -0.068400
     18 C16          3.3300     1.0380    -0.6640 c6         1 A9H      -0.031200
     19 C17          3.6720    -0.3520    -0.1250 c2         1 A9H      -0.142400
     20 C18          5.1470    -0.7520    -0.1460 c3         1 A9H      -0.014500
     21 C19          5.8020    -0.5560    -1.5320 c3         1 A9H      -0.082100
     22 C20          5.9460    -0.0510     0.9760 c3         1 A9H      -0.082100
     23 H2          -3.4410    -0.3540     2.2670 hc         1 A9H       0.013700
     24 H3          -3.5270     1.3620     1.8590 hc         1 A9H       0.013700
     25 H4          -4.8630     0.3200     1.4820 hc         1 A9H       0.013700
     26 H5          -3.2790     0.9720    -1.9220 hc         1 A9H       0.042700
     27 H6          -4.5110     1.5550    -0.8180 hc         1 A9H       0.042700
     28 H7          -2.8180     3.2940    -1.2860 hc         1 A9H       0.018700
     29 H8          -2.7570     2.8970     0.4170 hc         1 A9H       0.018700
     30 H9          -0.8940     1.8600    -1.7990 hc         1 A9H       0.022700
     31 H10         -0.4730     3.0360    -0.5690 hc         1 A9H       0.022700
     32 H11         -1.4860     1.7650     2.0850 hc         1 A9H       0.024033
     33 H12         -0.0790     0.7450     2.3430 hc         1 A9H       0.024033
     34 H13          0.0950     2.3920     1.7450 hc         1 A9H       0.024033
     35 H14         -1.4520    -0.6230    -1.0060 hc         1 A9H       0.074700
     36 H15         -1.4250    -1.2690     1.9720 hc         1 A9H       0.061700
     37 H16         -1.6680    -2.3770     0.6340 hc         1 A9H       0.061700
     38 H17          0.6710    -2.6590     1.2740 ha         1 A9H       0.153000
     39 H18          2.9620    -2.1580     0.7150 ha         1 A9H       0.159000
     40 H19          0.8110     0.3150    -1.3570 hc         1 A9H       0.054700
     41 H20          1.7470     2.5140    -0.5690 hc         1 A9H       0.036200
     42 H21          2.1480     1.7770     0.9830 hc         1 A9H       0.036200
     43 H22          3.2640     0.9970    -1.7600 hc         1 A9H       0.034200
     44 H23          4.1270     1.7550    -0.4270 hc         1 A9H       0.034200
     45 H24          5.2080    -1.8270     0.0660 hc         1 A9H       0.042700
     46 H25          6.8170    -0.9710    -1.5400 hc         1 A9H       0.028700
     47 H26          5.2210    -1.0700    -2.3080 hc         1 A9H       0.028700
     48 H27          5.8690     0.5060    -1.7970 hc         1 A9H       0.028700
     49 H28          5.4790    -0.2340     1.9510 hc         1 A9H       0.028700
     50 H29          6.9730    -0.4340     1.0140 hc         1 A9H       0.028700
     51 H30          5.9930     1.0320     0.8140 hc         1 A9H       0.028700
@<TRIPOS>BOND
     1     1     2 1   
     2     2     3 1   
     3     2     4 1   
     4     4     5 1   
     5     4     6 1   
     6     4    11 1   
     7     5    23 1   
     8     5    24 1   
     9     5    25 1   
    10     6     7 1   
    11     6    26 1   
    12     6    27 1   
    13     7     8 1   
    14     7    28 1   
    15     7    29 1   
    16     8     9 1   
    17     8    30 1   
    18     8    31 1   
    19     9    10 1   
    20     9    11 1   
    21     9    16 1   
    22    10    32 1   
    23    10    33 1   
    24    10    34 1   
    25    11    12 1   
    26    11    35 1   
    27    12    13 1   
    28    12    36 1   
    29    12    37 1   
    30    13    14 2   
    31    13    38 1   
    32    14    15 1   
    33    14    16 1   
    34    15    19 2   
    35    15    39 1   
    36    16    17 1   
    37    16    40 1   
    38    17    18 1   
    39    17    41 1   
    40    17    42 1   
    41    18    19 1   
    42    18    43 1   
    43    18    44 1   
    44    19    20 1   
    45    20    21 1   
    46    20    22 1   
    47    20    45 1   
    48    21    46 1   
    49    21    47 1   
    50    21    48 1   
    51    22    49 1   
    52    22    50 1   
    53    22    51 1   
@<TRIPOS>SUBSTRUCTURE
     1 A9H         1 TEMP              0 ****  ****    0 ROOT
