@<TRIPOS>MOLECULE
A9I
   58    62     1     0     0
SMALL
bcc


@<TRIPOS>ATOM
      1 C01         -4.5270   -45.7510   -15.9450 cx         1 A9I      -0.094900
      2 C02         -5.5530   -44.6820   -16.0090 cx         1 A9I      -0.094900
      3 C03         -4.2160   -44.4650   -16.6690 cx         1 A9I      -0.249700
      4 C04         -3.2640   -43.5240   -16.0260 c          1 A9I       0.714100
      5 C07         -1.4310   -41.9650   -16.6710 ca         1 A9I       0.570200
      6 C09          0.1940   -40.7310   -17.6780 ca         1 A9I       0.465200
      7 C10          0.6370   -40.1900   -16.4840 ca         1 A9I      -0.350300
      8 C11         -0.0330   -40.5860   -15.3340 ca         1 A9I       0.190100
      9 C12         -1.0870   -41.4870   -15.4110 ca         1 A9I      -0.292300
     10 C14          1.3650   -39.3410   -13.9220 ca         1 A9I       0.039100
     11 C15          1.2340   -37.9670   -13.9840 ca         1 A9I       0.148900
     12 C16          2.2980   -37.1130   -13.7670 ca         1 A9I      -0.184000
     13 C17          3.5580   -37.6390   -13.4820 ca         1 A9I       0.083600
     14 C18          3.6710   -39.0320   -13.4290 ca         1 A9I       0.069900
     15 C19          2.6110   -39.8800   -13.6420 ca         1 A9I      -0.123000
     16 C22          4.8710   -35.5620   -13.3120 c          1 A9I       0.719100
     17 C24          6.2580   -35.0390   -13.0030 cx         1 A9I      -0.331000
     18 C25          6.2540   -33.6580   -12.3550 cx         1 A9I      -0.078900
     19 C26          6.6130   -33.7730   -13.7770 cx         1 A9I      -0.078900
     20 C27          7.3760   -35.9820   -12.6580 c          1 A9I       0.717100
     21 C30          9.7260   -36.2060   -12.0770 ca         1 A9I       0.025600
     22 C31         10.4230   -35.9150   -10.9110 ca         1 A9I      -0.103000
     23 C32         11.5650   -36.6290   -10.5750 ca         1 A9I      -0.156500
     24 C33         11.9800   -37.6450   -11.4130 ca         1 A9I       0.136900
     25 C34         11.3030   -37.9550   -12.5780 ca         1 A9I      -0.156500
     26 C35         10.1750   -37.2230   -12.9130 ca         1 A9I      -0.103000
     27 F20          4.8740   -39.5600   -13.1550 f          1 A9I      -0.132900
     28 F36         13.0750   -38.3500   -11.0910 f          1 A9I      -0.137900
     29 F37          0.0340   -37.4510   -14.2690 f          1 A9I      -0.120900
     30 N06         -2.4500   -42.8770   -16.9090 ns         1 A9I      -0.551400
     31 N08         -0.8050   -41.5920   -17.7860 nb         1 A9I      -0.756000
     32 N21          4.7070   -36.9020   -13.2360 ns         1 A9I      -0.470100
     33 N29          8.5870   -35.4390   -12.4120 ns         1 A9I      -0.476100
     34 O05         -3.2170   -43.3570   -14.8200 o          1 A9I      -0.579100
     35 O13          0.2780   -40.1510   -14.0900 os         1 A9I      -0.222200
     36 O23          3.9830   -34.7840   -13.6100 o          1 A9I      -0.593100
     37 O28          7.2120   -37.1960   -12.6050 o          1 A9I      -0.596100
     38 H1          -4.6550   -46.6320   -16.5600 hc         1 A9I       0.083450
     39 H2          -4.0250   -45.9250   -15.0020 hc         1 A9I       0.083450
     40 H3          -5.7610   -44.1180   -15.1100 hc         1 A9I       0.083450
     41 H4          -6.4000   -44.8150   -16.6680 hc         1 A9I       0.083450
     42 H5          -4.1960   -44.5130   -17.7520 hc         1 A9I       0.089700
     43 H6           0.6830   -40.4480   -18.6030 h4         1 A9I       0.018100
     44 H7           1.4670   -39.4980   -16.4770 ha         1 A9I       0.154000
     45 H8          -1.6050   -41.7990   -14.5190 ha         1 A9I       0.190000
     46 H9           2.1380   -36.0490   -13.8230 ha         1 A9I       0.188000
     47 H10          2.7490   -40.9520   -13.5850 ha         1 A9I       0.170000
     48 H11          7.0160   -33.4520   -11.6150 hc         1 A9I       0.092200
     49 H12          5.2810   -33.2610   -12.1010 hc         1 A9I       0.092200
     50 H13          7.6440   -33.6570   -14.0830 hc         1 A9I       0.092200
     51 H14          5.8940   -33.4520   -14.5170 hc         1 A9I       0.092200
     52 H15         10.0740   -35.1250   -10.2580 ha         1 A9I       0.144000
     53 H16         12.1110   -36.4010    -9.6690 ha         1 A9I       0.155500
     54 H17         11.6560   -38.7480   -13.2230 ha         1 A9I       0.155500
     55 H18          9.6580   -37.4440   -13.8360 ha         1 A9I       0.144000
     56 H19         -2.5550   -43.0990   -17.8890 hn         1 A9I       0.334500
     57 H20          5.5620   -37.4100   -12.9910 hn         1 A9I       0.383500
     58 H21          8.6930   -34.4380   -12.3550 hn         1 A9I       0.327500
@<TRIPOS>BOND
     1     1     2 1   
     2     1     3 1   
     3     1    38 1   
     4     1    39 1   
     5     2     3 1   
     6     2    40 1   
     7     2    41 1   
     8     3     4 1   
     9     3    42 1   
    10     4    30 1   
    11     4    34 2   
    12     5     9 ar  
    13     5    30 1   
    14     5    31 ar  
    15     6     7 ar  
    16     6    31 ar  
    17     6    43 1   
    18     7     8 ar  
    19     7    44 1   
    20     8     9 ar  
    21     8    35 1   
    22     9    45 1   
    23    10    11 ar  
    24    10    15 ar  
    25    10    35 1   
    26    11    12 ar  
    27    11    29 1   
    28    12    13 ar  
    29    12    46 1   
    30    13    14 ar  
    31    13    32 1   
    32    14    15 ar  
    33    14    27 1   
    34    15    47 1   
    35    16    17 1   
    36    16    32 1   
    37    16    36 2   
    38    17    18 1   
    39    17    19 1   
    40    17    20 1   
    41    18    19 1   
    42    18    48 1   
    43    18    49 1   
    44    19    50 1   
    45    19    51 1   
    46    20    33 1   
    47    20    37 2   
    48    21    22 ar  
    49    21    26 ar  
    50    21    33 1   
    51    22    23 ar  
    52    22    52 1   
    53    23    24 ar  
    54    23    53 1   
    55    24    25 ar  
    56    24    28 1   
    57    25    26 ar  
    58    25    54 1   
    59    26    55 1   
    60    30    56 1   
    61    32    57 1   
    62    33    58 1   
@<TRIPOS>SUBSTRUCTURE
     1 A9I         1 TEMP              0 ****  ****    0 ROOT
