@<TRIPOS>MOLECULE
A9I
   58    62     1     0     0
SMALL
No Charge or Current Charge


@<TRIPOS>ATOM
      1 C01         -4.2680   -45.2370   -16.6530 cx         1 A9I      -0.094900
      2 C02         -5.4480   -44.4820   -16.0900 cx         1 A9I      -0.094900
      3 C03         -4.3800   -43.7400   -16.8700 cx         1 A9I      -0.249700
      4 C04         -3.4370   -42.8220   -16.1290 c          1 A9I       0.647100
      5 C07         -0.9570   -42.3830   -15.9980 ca         1 A9I       0.504900
      6 C09          1.3180   -42.2680   -16.3810 ca         1 A9I       0.399900
      7 C10          1.4910   -41.3450   -15.3430 ca         1 A9I      -0.267000
      8 C11          0.3680   -40.9300   -14.6120 ca         1 A9I       0.190100
      9 C12         -0.8790   -41.4660   -14.9390 ca         1 A9I      -0.209000
     10 C14          1.4680   -39.0930   -13.4900 ca         1 A9I       0.039100
     11 C15          1.6810   -38.1550   -14.5240 ca         1 A9I       0.184000
     12 C16          2.7040   -37.1980   -14.4150 ca         1 A9I      -0.166000
     13 C17          3.5280   -37.1600   -13.2660 ca         1 A9I      -0.009000
     14 C18          3.2950   -38.0960   -12.2350 ca         1 A9I       0.105000
     15 C19          2.2720   -39.0520   -12.3410 ca         1 A9I      -0.105000
     16 C22          5.0880   -35.2150   -13.9000 c          1 A9I       0.652100
     17 C24          6.2380   -34.4640   -13.2930 cx         1 A9I      -0.331000
     18 C25          6.0500   -33.7880   -11.9380 cx         1 A9I      -0.078900
     19 C26          6.1160   -32.9490   -13.1910 cx         1 A9I      -0.078900
     20 C27          7.5830   -35.0300   -13.6460 c          1 A9I       0.650100
     21 C30          9.2470   -36.7420   -12.6830 ca         1 A9I      -0.067000
     22 C31          9.4460   -37.5580   -11.5500 ca         1 A9I      -0.085000
     23 C32         10.5950   -38.3610   -11.4390 ca         1 A9I      -0.138500
     24 C33         11.5530   -38.3540   -12.4620 ca         1 A9I       0.172000
     25 C34         11.3680   -37.5510   -13.5960 ca         1 A9I      -0.138500
     26 C35         10.2200   -36.7460   -13.7110 ca         1 A9I      -0.085000
     27 F20          4.0640   -38.0790   -11.1220 f          1 A9I      -0.168000
     28 F36         12.6570   -39.1260   -12.3560 f          1 A9I      -0.173000
     29 F37          0.8960   -38.1540   -15.6260 f          1 A9I      -0.156000
     30 N06         -2.1180   -43.0110   -16.4570 ns         1 A9I      -0.317900
     31 N08          0.1140   -42.7830   -16.7090 nb         1 A9I      -0.756000
     32 N21          4.5830   -36.2190   -13.0890 ns         1 A9I      -0.144000
     33 N29          8.0600   -35.9580   -12.7290 ns         1 A9I      -0.150000
     34 O05         -3.8380   -41.9900   -15.3280 o          1 A9I      -0.579100
     35 O13          0.4680   -40.0370   -13.5690 os         1 A9I      -0.222200
     36 O23          4.6660   -34.9410   -15.0150 o          1 A9I      -0.593100
     37 O28          8.1740   -34.6810   -14.6590 o          1 A9I      -0.596100
     38 H1          -4.4450   -45.8890   -17.5060 hc         1 A9I       0.083450
     39 H2          -3.5240   -45.6050   -15.9500 hc         1 A9I       0.083450
     40 H3          -5.4910   -44.3420   -15.0110 hc         1 A9I       0.083450
     41 H4          -6.4160   -44.6270   -16.5640 hc         1 A9I       0.083450
     42 H5          -4.6470   -43.4050   -17.8690 hc         1 A9I       0.089700
     43 H6           2.1700   -42.6110   -16.9670 h4         1 A9I       0.018100
     44 H7           2.4850   -40.9730   -15.1160 ha         1 A9I       0.136000
     45 H8          -1.7530   -41.1700   -14.3730 ha         1 A9I       0.172000
     46 H9           2.8310   -36.4960   -15.2330 ha         1 A9I       0.170000
     47 H10          2.1090   -39.7640   -11.5360 ha         1 A9I       0.152000
     48 H11          6.8980   -33.7330   -11.2570 hc         1 A9I       0.092200
     49 H12          5.0850   -33.8650   -11.4410 hc         1 A9I       0.092200
     50 H13          7.0080   -32.3460   -13.3480 hc         1 A9I       0.092200
     51 H14          5.1950   -32.4800   -13.5330 hc         1 A9I       0.092200
     52 H15          8.7080   -37.5700   -10.7500 ha         1 A9I       0.126000
     53 H16         10.7430   -38.9870   -10.5630 ha         1 A9I       0.137500
     54 H17         12.1150   -37.5520   -14.3860 ha         1 A9I       0.137500
     55 H18         10.1060   -36.1390   -14.6030 ha         1 A9I       0.126000
     56 H19         -1.9470   -43.7210   -17.1540 hn         1 A9I       0.168000
     57 H20          5.0480   -36.2940   -12.1940 hn         1 A9I       0.217000
     58 H21          7.4480   -36.1010   -11.9360 hn         1 A9I       0.161000
@<TRIPOS>BOND
     1     1     2 1   
     2     1     3 1   
     3     1    38 1   
     4     1    39 1   
     5     2     3 1   
     6     2    40 1   
     7     2    41 1   
     8     3     4 1   
     9     3    42 1   
    10     4    30 1   
    11     4    34 2   
    12     5     9 ar  
    13     5    30 1   
    14     5    31 ar  
    15     6     7 ar  
    16     6    31 ar  
    17     6    43 1   
    18     7     8 ar  
    19     7    44 1   
    20     8     9 ar  
    21     8    35 1   
    22     9    45 1   
    23    10    11 ar  
    24    10    15 ar  
    25    10    35 1   
    26    11    12 ar  
    27    11    29 1   
    28    12    13 ar  
    29    12    46 1   
    30    13    14 ar  
    31    13    32 1   
    32    14    15 ar  
    33    14    27 1   
    34    15    47 1   
    35    16    17 1   
    36    16    32 1   
    37    16    36 2   
    38    17    18 1   
    39    17    19 1   
    40    17    20 1   
    41    18    19 1   
    42    18    48 1   
    43    18    49 1   
    44    19    50 1   
    45    19    51 1   
    46    20    33 1   
    47    20    37 2   
    48    21    22 ar  
    49    21    26 ar  
    50    21    33 1   
    51    22    23 ar  
    52    22    52 1   
    53    23    24 ar  
    54    23    53 1   
    55    24    25 ar  
    56    24    28 1   
    57    25    26 ar  
    58    25    54 1   
    59    26    55 1   
    60    30    56 1   
    61    32    57 1   
    62    33    58 1   
@<TRIPOS>SUBSTRUCTURE
     1 A9I         1 TEMP              0 ****  ****    0 ROOT
