@<TRIPOS>MOLECULE
A9K
   28    29     1     0     0
SMALL
No Charge or Current Charge


@<TRIPOS>ATOM
      1 C1          -2.9180    -0.5330    -0.2510 ca         1 A9K      -0.077300
      2 C2          -2.2070    -1.6840     0.1370 ca         1 A9K      -0.116000
      3 C3          -0.8030    -1.6660     0.1850 ca         1 A9K      -0.094000
      4 C4          -0.0760    -0.4990    -0.1450 cp         1 A9K      -0.014000
      5 C5          -0.8020     0.6540    -0.5450 ca         1 A9K       0.141000
      6 C6          -2.2060     0.6320    -0.5940 ca         1 A9K      -0.086000
      7 Cl           0.0230     2.1360    -1.0350 cl         1 A9K      -0.204000
      8 C           -4.4400    -0.5480    -0.3130 c3         1 A9K       0.198100
      9 N           -5.0340     0.1150     0.8630 n8         1 A9K      -1.001200
     10 C7           1.4160    -0.5140    -0.0870 cp         1 A9K      -0.077000
     11 C12          2.1360     0.2270     0.8870 ca         1 A9K       0.163100
     12 O            1.4830     0.9730     1.8260 oh         1 A9K      -0.521100
     13 C11          3.5410     0.1880     0.9170 ca         1 A9K      -0.211000
     14 C10          4.2480    -0.5900    -0.0150 ca         1 A9K      -0.062000
     15 C9           3.5490    -1.3370    -0.9760 ca         1 A9K      -0.152000
     16 C8           2.1450    -1.3020    -1.0090 ca         1 A9K      -0.057000
     17 H1          -2.7420    -2.5940     0.4010 ha         1 A9K       0.112000
     18 H2          -0.2670    -2.5630     0.4880 ha         1 A9K       0.118000
     19 H3          -2.7450     1.5250    -0.9030 ha         1 A9K       0.148000
     20 H4          -4.7790    -0.0310    -1.2220 h1         1 A9K       0.035700
     21 H5          -4.8030    -1.5850    -0.3570 h1         1 A9K       0.035700
     22 H6          -6.0550     0.0050     0.8250 hn         1 A9K       0.399000
     23 H7          -4.7640    -0.4080     1.7040 hn         1 A9K       0.399000
     24 H9           2.1530     1.4020     2.3980 ho         1 A9K       0.463000
     25 H10          4.0920     0.7560     1.6630 ha         1 A9K       0.113000
     26 H11          5.3360    -0.6180     0.0110 ha         1 A9K       0.112000
     27 H12          4.0950    -1.9430    -1.6950 ha         1 A9K       0.117000
     28 H13          1.6120    -1.8830    -1.7590 ha         1 A9K       0.118000
@<TRIPOS>BOND
     1     1     2 ar  
     2     1     6 ar  
     3     1     8 1   
     4     2     3 ar  
     5     2    17 1   
     6     3     4 ar  
     7     3    18 1   
     8     4     5 ar  
     9     4    10 1   
    10     5     6 ar  
    11     5     7 1   
    12     6    19 1   
    13     8     9 1   
    14     8    20 1   
    15     8    21 1   
    16     9    22 1   
    17     9    23 1   
    18    10    11 ar  
    19    10    16 ar  
    20    11    12 1   
    21    11    13 ar  
    22    12    24 1   
    23    13    14 ar  
    24    13    25 1   
    25    14    15 ar  
    26    14    26 1   
    27    15    16 ar  
    28    15    27 1   
    29    16    28 1   
@<TRIPOS>SUBSTRUCTURE
     1 A9K         1 TEMP              0 ****  ****    0 ROOT
