@<TRIPOS>MOLECULE
A9K
   28    29     1     0     0
SMALL
abcg2


@<TRIPOS>ATOM
      1 C1          -2.8800    -0.6640    -0.0810 ca         1 A9K      -0.077300
      2 C2          -2.1160    -1.8070     0.1330 ca         1 A9K      -0.116000
      3 C3          -0.7320    -1.7450     0.1290 ca         1 A9K      -0.094000
      4 C4          -0.0570    -0.5440    -0.0780 cp         1 A9K      -0.014000
      5 C5          -0.8380     0.5890    -0.2900 ca         1 A9K       0.141000
      6 C6          -2.2230     0.5430    -0.2930 ca         1 A9K      -0.086000
      7 CL          -0.0680     2.1140    -0.5980 cl         1 A9K      -0.204000
      8 C           -4.3850    -0.7490    -0.1180 c3         1 A9K       0.198100
      9 N           -5.0200     0.5070     0.2290 n8         1 A9K      -1.001200
     10 C7           1.4220    -0.5150    -0.0930 cp         1 A9K      -0.077000
     11 C12          2.1380     0.1360     0.9170 ca         1 A9K       0.163100
     12 O            1.4340     0.7340     1.8940 oh         1 A9K      -0.521100
     13 C11          3.5300     0.1350     0.8950 ca         1 A9K      -0.211000
     14 C10          4.2110    -0.5200    -0.1210 ca         1 A9K      -0.062000
     15 C9           3.5130    -1.1810    -1.1210 ca         1 A9K      -0.152000
     16 C8           2.1260    -1.1730    -1.0960 ca         1 A9K      -0.057000
     17 H1          -2.6060    -2.7560     0.3140 ha         1 A9K       0.112000
     18 H2          -0.1540    -2.6440     0.3060 ha         1 A9K       0.118000
     19 H3          -2.7980     1.4440    -0.4610 ha         1 A9K       0.148000
     20 H4          -4.6840    -1.0070    -1.1380 h1         1 A9K       0.035700
     21 H5          -4.6990    -1.5970     0.5050 h1         1 A9K       0.035700
     22 H6          -6.0120     0.4440     0.0440 hn         1 A9K       0.399000
     23 H7          -4.9280     0.6720     1.2230 hn         1 A9K       0.399000
     24 H9           2.0280     1.1430     2.5330 ho         1 A9K       0.463000
     25 H10          4.0830     0.6400     1.6790 ha         1 A9K       0.113000
     26 H11          5.2940    -0.5120    -0.1230 ha         1 A9K       0.112000
     27 H12          4.0400    -1.6940    -1.9150 ha         1 A9K       0.117000
     28 H13          1.5690    -1.6780    -1.8760 ha         1 A9K       0.118000
@<TRIPOS>BOND
     1     1     2 ar  
     2     1     6 ar  
     3     1     8 1   
     4     2     3 ar  
     5     2    17 1   
     6     3     4 ar  
     7     3    18 1   
     8     4     5 ar  
     9     4    10 1   
    10     5     6 ar  
    11     5     7 1   
    12     6    19 1   
    13     8     9 1   
    14     8    20 1   
    15     8    21 1   
    16     9    22 1   
    17     9    23 1   
    18    10    11 ar  
    19    10    16 ar  
    20    11    12 1   
    21    11    13 ar  
    22    12    24 1   
    23    13    14 ar  
    24    13    25 1   
    25    14    15 ar  
    26    14    26 1   
    27    15    16 ar  
    28    15    27 1   
    29    16    28 1   
@<TRIPOS>SUBSTRUCTURE
     1 A9K         1 TEMP              0 ****  ****    0 ROOT
