@<TRIPOS>MOLECULE
A9L
   56    58     1     0     0
SMALL
No Charge or Current Charge


@<TRIPOS>ATOM
      1 C4          86.2690   156.3380    29.8870 ca         1 A9L       0.062000
      2 C14         80.9590   161.5660    29.2770 c3         1 A9L      -0.337100
      3 C5          85.1660   156.7190    29.1050 ca         1 A9L      -0.224600
      4 C6          84.0550   155.8990    28.9470 ca         1 A9L      -0.094600
      5 C11         83.0750   158.8040    26.8310 c3         1 A9L       0.210000
      6 C7          84.9300   157.9630    28.3190 c          1 A9L       0.602600
      7 C8          83.0710   156.5890    28.0620 c          1 A9L       0.602600
      8 C9          88.5710   157.1440    30.6840 c          1 A9L       0.614100
      9 C10         89.4710   158.3640    30.5130 c3         1 A9L      -0.183100
     10 C12         81.9200   159.5980    27.4810 c3         1 A9L      -0.311400
     11 C13         82.7220   158.1790    25.4750 ca         1 A9L      -0.102300
     12 N1          83.6650   157.8150    27.7520 n          1 A9L      -0.408400
     13 N2          87.3690   157.2280    30.0000 ns         1 A9L      -0.152000
     14 C3          86.2010   155.0690    30.5180 ca         1 A9L      -0.132000
     15 C1          83.9770   154.6450    29.5640 ca         1 A9L      -0.076000
     16 C15         83.7700   157.8490    24.5920 ca         1 A9L      -0.160000
     17 C16         83.5020   157.2620    23.3340 ca         1 A9L       0.117100
     18 C17         82.1640   157.0000    22.9550 ca         1 A9L       0.123100
     19 C18         81.1140   157.3250    23.8410 ca         1 A9L      -0.178000
     20 C19         81.3920   157.9060    25.0890 ca         1 A9L      -0.075000
     21 C2          85.0670   154.2340    30.3570 ca         1 A9L      -0.067000
     22 C20         85.9060   157.1490    22.7550 c3         1 A9L       0.161600
     23 C21         86.7260   156.6560    21.5530 c3         1 A9L      -0.093100
     24 C22         80.5980   156.1220    21.2510 c3         1 A9L       0.144900
     25 O1          88.9140   156.1910    31.3720 o          1 A9L      -0.572100
     26 O2          81.9750   156.1780    27.7080 o          1 A9L      -0.485000
     27 O3          85.6930   158.9070    28.1810 o          1 A9L      -0.517000
     28 O4          83.3900   161.6610    28.2610 o          1 A9L      -0.512500
     29 O5          82.8450   159.8560    29.9580 o          1 A9L      -0.512500
     30 O6          84.5180   156.9300    22.4530 os         1 A9L      -0.330100
     31 O7          81.9240   156.4240    21.7180 os         1 A9L      -0.319100
     32 S1          82.4460   160.6840    28.8140 s6         1 A9L       1.079000
     33 H1          81.2210   162.2480    30.0930 h1         1 A9L       0.104700
     34 H2          80.6100   162.1180    28.3980 h1         1 A9L       0.104700
     35 H3          80.2190   160.8270    29.6020 h1         1 A9L       0.104700
     36 H4          83.8570   159.5430    26.6010 h1         1 A9L       0.097700
     37 H5          90.4140   158.2730    31.0630 hc         1 A9L       0.069033
     38 H6          89.6400   158.5360    29.4440 hc         1 A9L       0.069033
     39 H7          88.9150   159.2610    30.8080 hc         1 A9L       0.069033
     40 H8          81.4530   160.2540    26.7390 h1         1 A9L       0.108700
     41 H9          81.1660   158.9240    27.9020 h1         1 A9L       0.108700
     42 H10         87.2500   158.0880    29.4790 hn         1 A9L       0.181000
     43 H11         87.0140   154.7070    31.1380 ha         1 A9L       0.154000
     44 H12         83.1040   154.0080    29.4360 ha         1 A9L       0.140000
     45 H13         84.7910   158.0550    24.9020 ha         1 A9L       0.126000
     46 H14         80.0770   157.1310    23.5830 ha         1 A9L       0.120000
     47 H15         80.5610   158.1300    25.7550 ha         1 A9L       0.117000
     48 H16         85.0380   153.2650    30.8500 ha         1 A9L       0.122000
     49 H17         86.2030   156.5900    23.6520 h1         1 A9L       0.033200
     50 H18         86.1050   158.2160    22.9200 h1         1 A9L       0.033200
     51 H19         87.7970   156.8040    21.7380 hc         1 A9L       0.047033
     52 H20         86.5510   155.5880    21.3770 hc         1 A9L       0.047033
     53 H21         86.4540   157.2100    20.6460 hc         1 A9L       0.047033
     54 H22         80.6410   155.6740    20.2500 h1         1 A9L       0.040700
     55 H23         80.1010   155.4080    21.9210 h1         1 A9L       0.040700
     56 H24         79.9880   157.0320    21.1890 h1         1 A9L       0.040700
@<TRIPOS>BOND
     1     1     3 ar  
     2     1    13 1   
     3     1    14 ar  
     4     2    32 1   
     5     2    33 1   
     6     2    34 1   
     7     2    35 1   
     8     3     4 ar  
     9     3     6 1   
    10     4     7 1   
    11     4    15 ar  
    12     5    10 1   
    13     5    11 1   
    14     5    12 1   
    15     5    36 1   
    16     6    12 1   
    17     6    27 2   
    18     7    12 1   
    19     7    26 2   
    20     8     9 1   
    21     8    13 1   
    22     8    25 2   
    23     9    37 1   
    24     9    38 1   
    25     9    39 1   
    26    10    32 1   
    27    10    40 1   
    28    10    41 1   
    29    11    16 ar  
    30    11    20 ar  
    31    13    42 1   
    32    14    21 ar  
    33    14    43 1   
    34    15    21 ar  
    35    15    44 1   
    36    16    17 ar  
    37    16    45 1   
    38    17    18 ar  
    39    17    30 1   
    40    18    19 ar  
    41    18    31 1   
    42    19    20 ar  
    43    19    46 1   
    44    20    47 1   
    45    21    48 1   
    46    22    23 1   
    47    22    30 1   
    48    22    49 1   
    49    22    50 1   
    50    23    51 1   
    51    23    52 1   
    52    23    53 1   
    53    24    31 1   
    54    24    54 1   
    55    24    55 1   
    56    24    56 1   
    57    28    32 2   
    58    29    32 2   
@<TRIPOS>SUBSTRUCTURE
     1 A9L         1 TEMP              0 ****  ****    0 ROOT
