@<TRIPOS>MOLECULE
A9L
   56    58     1     0     0
SMALL
abcg2


@<TRIPOS>ATOM
      1 C4          86.2180   156.4520    29.8300 ca         1 A9L       0.062000
      2 C14         80.8710   161.3360    29.3440 c3         1 A9L      -0.337100
      3 C5          85.0910   156.8320    29.1050 ca         1 A9L      -0.224600
      4 C6          83.8890   156.1510    29.2040 ca         1 A9L      -0.094600
      5 C11         83.0010   158.8240    26.7910 c3         1 A9L       0.210000
      6 C7          84.9120   157.9350    28.1460 c          1 A9L       0.602600
      7 C8          82.9170   156.8100    28.3000 c          1 A9L       0.602600
      8 C9          88.6080   156.9840    30.2580 c          1 A9L       0.614100
      9 C10         89.6310   158.0020    29.8300 c3         1 A9L      -0.183100
     10 C12         81.8070   159.5400    27.4140 c3         1 A9L      -0.311400
     11 C13         82.6940   158.1830    25.4560 ca         1 A9L      -0.102300
     12 N1          83.5950   157.8700    27.7160 n          1 A9L      -0.408400
     13 N2          87.3850   157.1760    29.6730 ns         1 A9L      -0.152000
     14 C3          86.0600   155.3370    30.6730 ca         1 A9L      -0.132000
     15 C1          83.7270   155.0580    30.0200 ca         1 A9L      -0.076000
     16 C15         83.7770   157.9380    24.6040 ca         1 A9L      -0.160000
     17 C16         83.5970   157.3360    23.3720 ca         1 A9L       0.117100
     18 C17         82.2930   156.9840    22.9570 ca         1 A9L       0.123100
     19 C18         81.2260   157.2420    23.7980 ca         1 A9L      -0.178000
     20 C19         81.4250   157.8350    25.0440 ca         1 A9L      -0.075000
     21 C2          84.8470   154.6710    30.7560 ca         1 A9L      -0.067000
     22 C20         85.9240   157.3080    22.8740 c3         1 A9L       0.161600
     23 C21         86.8180   156.8570    21.7450 c3         1 A9L      -0.093100
     24 C22         80.9210   156.0570    21.2670 c3         1 A9L       0.144900
     25 O1          88.8440   156.0880    31.0430 o          1 A9L      -0.572100
     26 O2          81.7720   156.5090    28.0840 o          1 A9L      -0.485000
     27 O3          85.7300   158.7440    27.7740 o          1 A9L      -0.517000
     28 O4          83.4490   161.0850    28.7990 o          1 A9L      -0.512500
     29 O5          82.2950   159.2280    30.0240 o          1 A9L      -0.512500
     30 O6          84.5770   157.0530    22.4980 os         1 A9L      -0.330100
     31 O7          82.2040   156.4070    21.7470 os         1 A9L      -0.319100
     32 S1          82.2500   160.2710    28.9980 s6         1 A9L       1.079000
     33 H1          81.0560   161.7930    30.3160 h1         1 A9L       0.104700
     34 H2          80.7980   162.1040    28.5780 h1         1 A9L       0.104700
     35 H3          79.9590   160.7430    29.3820 h1         1 A9L       0.104700
     36 H4          83.7710   159.5790    26.6270 h1         1 A9L       0.097700
     37 H5          90.6030   157.7490    30.2430 hc         1 A9L       0.069033
     38 H6          89.7100   158.0490    28.7440 hc         1 A9L       0.069033
     39 H7          89.3470   158.9950    30.1810 hc         1 A9L       0.069033
     40 H8          81.5000   160.3620    26.7650 h1         1 A9L       0.108700
     41 H9          80.9460   158.8990    27.5930 h1         1 A9L       0.108700
     42 H10         87.3220   157.9510    29.0250 hn         1 A9L       0.181000
     43 H11         86.8850   154.9880    31.2710 ha         1 A9L       0.154000
     44 H12         82.7890   154.5250    30.0920 ha         1 A9L       0.140000
     45 H13         84.7700   158.2300    24.9220 ha         1 A9L       0.126000
     46 H14         80.2170   156.9850    23.5060 ha         1 A9L       0.120000
     47 H15         80.5570   158.0140    25.6630 ha         1 A9L       0.117000
     48 H16         84.7780   153.8180    31.4190 ha         1 A9L       0.122000
     49 H17         86.1690   156.7690    23.7960 h1         1 A9L       0.033200
     50 H18         86.0620   158.3760    23.0710 h1         1 A9L       0.033200
     51 H19         87.8560   157.0630    22.0050 hc         1 A9L       0.047033
     52 H20         86.7230   155.7870    21.5620 hc         1 A9L       0.047033
     53 H21         86.5910   157.3900    20.8220 hc         1 A9L       0.047033
     54 H22         81.0680   155.6190    20.2830 h1         1 A9L       0.040700
     55 H23         80.4320   155.3210    21.9100 h1         1 A9L       0.040700
     56 H24         80.2710   156.9300    21.1720 h1         1 A9L       0.040700
@<TRIPOS>BOND
     1     1     3 ar  
     2     1    13 1   
     3     1    14 ar  
     4     2    32 1   
     5     2    33 1   
     6     2    34 1   
     7     2    35 1   
     8     3     4 ar  
     9     3     6 1   
    10     4     7 1   
    11     4    15 ar  
    12     5    10 1   
    13     5    11 1   
    14     5    12 1   
    15     5    36 1   
    16     6    12 1   
    17     6    27 2   
    18     7    12 1   
    19     7    26 2   
    20     8     9 1   
    21     8    13 1   
    22     8    25 2   
    23     9    37 1   
    24     9    38 1   
    25     9    39 1   
    26    10    32 1   
    27    10    40 1   
    28    10    41 1   
    29    11    16 ar  
    30    11    20 ar  
    31    13    42 1   
    32    14    21 ar  
    33    14    43 1   
    34    15    21 ar  
    35    15    44 1   
    36    16    17 ar  
    37    16    45 1   
    38    17    18 ar  
    39    17    30 1   
    40    18    19 ar  
    41    18    31 1   
    42    19    20 ar  
    43    19    46 1   
    44    20    47 1   
    45    21    48 1   
    46    22    23 1   
    47    22    30 1   
    48    22    49 1   
    49    22    50 1   
    50    23    51 1   
    51    23    52 1   
    52    23    53 1   
    53    24    31 1   
    54    24    54 1   
    55    24    55 1   
    56    24    56 1   
    57    28    32 2   
    58    29    32 2   
@<TRIPOS>SUBSTRUCTURE
     1 A9L         1 TEMP              0 ****  ****    0 ROOT
