@<TRIPOS>MOLECULE
A9M
   70    69     1     0     0
SMALL
abcg2


@<TRIPOS>ATOM
      1 C1          -9.2000    -0.3180    -0.4340 c          1 A9M       0.599100
      2 O1          -9.3030    -1.4190    -0.9590 o          1 A9M      -0.609100
      3 C2          -7.8780     0.4140    -0.3250 c3         1 A9M      -0.157400
      4 C3          -6.6610    -0.4990    -0.2880 c3         1 A9M      -0.064400
      5 C4          -5.3640     0.2980    -0.2340 c3         1 A9M      -0.077400
      6 C5          -4.1170    -0.5760    -0.1970 c3         1 A9M      -0.073400
      7 C6          -2.8290     0.2390    -0.1680 c3         1 A9M      -0.075400
      8 C7          -1.5660    -0.6120    -0.1260 c3         1 A9M      -0.073400
      9 C8          -0.2910     0.2230    -0.1160 c3         1 A9M      -0.074400
     10 C9           0.9840    -0.6100    -0.0690 c3         1 A9M      -0.073400
     11 C10          2.2490     0.2410    -0.0740 c3         1 A9M      -0.074400
     12 C11          3.5340    -0.5750    -0.0190 c3         1 A9M      -0.074400
     13 C12          4.7890     0.2890    -0.0310 c3         1 A9M      -0.074400
     14 C13          6.0820    -0.5160     0.0290 c3         1 A9M      -0.074400
     15 C14          7.3300     0.3580     0.0130 c3         1 A9M      -0.074400
     16 C15          8.6280    -0.4370     0.0770 c3         1 A9M      -0.074400
     17 C16          9.8710     0.4450     0.0590 c3         1 A9M      -0.074400
     18 C17         11.1730    -0.3430     0.1220 c3         1 A9M      -0.074400
     19 C18         12.4120     0.5450     0.1060 c3         1 A9M      -0.075400
     20 C19         13.7190    -0.2360     0.1640 c3         1 A9M      -0.075400
     21 C20         14.9450     0.6670     0.1470 c3         1 A9M      -0.088100
     22 C22        -12.4410     0.4090     1.1350 c3         1 A9M       0.142600
     23 C23        -11.6220    -0.0910    -0.0330 c3         1 A9M       0.101000
     24 OAC        -12.4210     1.8210     1.1260 oh         1 A9M      -0.670000
     25 NAX        -10.2510     0.3510     0.0710 ns         1 A9M      -0.507900
     26 H2          -7.8060     1.0820    -1.1910 hc         1 A9M       0.054700
     27 H2A         -7.8840     1.0670     0.5520 hc         1 A9M       0.054700
     28 H3          -6.7210    -1.1610     0.5820 hc         1 A9M       0.055200
     29 H3A         -6.6550    -1.1450    -1.1690 hc         1 A9M       0.055200
     30 H4          -5.3120     0.9630    -1.1030 hc         1 A9M       0.035200
     31 H4A         -5.3730     0.9520     0.6460 hc         1 A9M       0.035200
     32 H5          -4.1550    -1.2300     0.6810 hc         1 A9M       0.040200
     33 H5A         -4.1090    -1.2380    -1.0690 hc         1 A9M       0.040200
     34 H6          -2.7960     0.8910    -1.0480 hc         1 A9M       0.036200
     35 H6A         -2.8430     0.9070     0.7010 hc         1 A9M       0.036200
     36 H7          -1.5890    -1.2550     0.7600 hc         1 A9M       0.038200
     37 H7A         -1.5520    -1.2860    -0.9900 hc         1 A9M       0.038200
     38 H8          -0.2720     0.8630    -1.0060 hc         1 A9M       0.036700
     39 H8A         -0.3110     0.9020     0.7430 hc         1 A9M       0.036700
     40 H9           0.9740    -1.2420     0.8260 hc         1 A9M       0.037700
     41 H9A          1.0040    -1.2950    -0.9230 hc         1 A9M       0.037700
     42 H10          2.2570     0.8690    -0.9720 hc         1 A9M       0.036700
     43 H10A         2.2230     0.9320     0.7760 hc         1 A9M       0.036700
     44 H11          3.5300    -1.2000     0.8820 hc         1 A9M       0.037700
     45 H11A         3.5620    -1.2680    -0.8670 hc         1 A9M       0.037700
     46 H12          4.7910     0.9100    -0.9340 hc         1 A9M       0.036700
     47 H12A         4.7560     0.9850     0.8140 hc         1 A9M       0.036700
     48 H13          6.0830    -1.1350     0.9340 hc         1 A9M       0.037700
     49 H13A         6.1160    -1.2140    -0.8150 hc         1 A9M       0.037700
     50 H14          7.3270     0.9760    -0.8920 hc         1 A9M       0.036700
     51 H14A         7.2910     1.0580     0.8550 hc         1 A9M       0.036700
     52 H15          8.6330    -1.0530     0.9840 hc         1 A9M       0.037700
     53 H15A         8.6680    -1.1370    -0.7650 hc         1 A9M       0.037700
     54 H16          9.8640     1.0620    -0.8470 hc         1 A9M       0.036700
     55 H16A         9.8290     1.1450     0.9010 hc         1 A9M       0.036700
     56 H17         11.1810    -0.9610     1.0270 hc         1 A9M       0.036700
     57 H17A        11.2170    -1.0410    -0.7220 hc         1 A9M       0.036700
     58 H18         12.4010     1.1660    -0.7970 hc         1 A9M       0.036700
     59 H18A        12.3690     1.2410     0.9510 hc         1 A9M       0.036700
     60 H19         13.7310    -0.8570     1.0660 hc         1 A9M       0.036700
     61 H19A        13.7630    -0.9310    -0.6810 hc         1 A9M       0.036700
     62 H20         15.8710     0.0920     0.1860 hc         1 A9M       0.031367
     63 H20A        14.9720     1.2750    -0.7590 hc         1 A9M       0.031367
     64 H20B        14.9420     1.3480     1.0010 hc         1 A9M       0.031367
     65 H22        -13.4600     0.0170     1.0350 h1         1 A9M       0.030200
     66 H22A       -12.0270     0.0060     2.0670 h1         1 A9M       0.030200
     67 H23        -11.6510    -1.1800    -0.0380 h1         1 A9M       0.060200
     68 H23A       -12.0710     0.2460    -0.9740 h1         1 A9M       0.060200
     69 HOAC       -12.7570     2.1380     1.9690 ho         1 A9M       0.447000
     70 HNAX       -10.0980     1.2820     0.4260 hn         1 A9M       0.320500
@<TRIPOS>BOND
     1     1     2 2   
     2     1     3 1   
     3     1    25 1   
     4     3     4 1   
     5     3    26 1   
     6     3    27 1   
     7     4     5 1   
     8     4    28 1   
     9     4    29 1   
    10     5     6 1   
    11     5    30 1   
    12     5    31 1   
    13     6     7 1   
    14     6    32 1   
    15     6    33 1   
    16     7     8 1   
    17     7    34 1   
    18     7    35 1   
    19     8     9 1   
    20     8    36 1   
    21     8    37 1   
    22     9    10 1   
    23     9    38 1   
    24     9    39 1   
    25    10    11 1   
    26    10    40 1   
    27    10    41 1   
    28    11    12 1   
    29    11    42 1   
    30    11    43 1   
    31    12    13 1   
    32    12    44 1   
    33    12    45 1   
    34    13    14 1   
    35    13    46 1   
    36    13    47 1   
    37    14    15 1   
    38    14    48 1   
    39    14    49 1   
    40    15    16 1   
    41    15    50 1   
    42    15    51 1   
    43    16    17 1   
    44    16    52 1   
    45    16    53 1   
    46    17    18 1   
    47    17    54 1   
    48    17    55 1   
    49    18    19 1   
    50    18    56 1   
    51    18    57 1   
    52    19    20 1   
    53    19    58 1   
    54    19    59 1   
    55    20    21 1   
    56    20    60 1   
    57    20    61 1   
    58    21    62 1   
    59    21    63 1   
    60    21    64 1   
    61    22    23 1   
    62    22    24 1   
    63    22    65 1   
    64    22    66 1   
    65    23    25 1   
    66    23    67 1   
    67    23    68 1   
    68    24    69 1   
    69    25    70 1   
@<TRIPOS>SUBSTRUCTURE
     1 A9M         1 TEMP              0 ****  ****    0 ROOT
