@<TRIPOS>MOLECULE
A9M
   70    69     1     0     0
SMALL
No Charge or Current Charge


@<TRIPOS>ATOM
      1 C1          -9.4520     0.0360    -0.7720 c          1 A9M       0.599100
      2 O1          -9.8280    -0.9850    -1.3290 o          1 A9M      -0.609100
      3 C2          -8.1500     0.7510    -1.1490 c3         1 A9M      -0.157400
      4 C3          -6.9120    -0.0090    -0.6170 c3         1 A9M      -0.064400
      5 C4          -5.5790     0.6850    -0.9740 c3         1 A9M      -0.077400
      6 C5          -4.3420    -0.0740    -0.4440 c3         1 A9M      -0.073400
      7 C6          -3.0090     0.6200    -0.8010 c3         1 A9M      -0.075400
      8 C7          -1.7720    -0.1380    -0.2720 c3         1 A9M      -0.073400
      9 C8          -0.4400     0.5560    -0.6300 c3         1 A9M      -0.074400
     10 C9           0.7980    -0.2020    -0.1000 c3         1 A9M      -0.073400
     11 C10          2.1300     0.4920    -0.4580 c3         1 A9M      -0.074400
     12 C11          3.3670    -0.2660     0.0710 c3         1 A9M      -0.074400
     13 C12          4.7000     0.4270    -0.2870 c3         1 A9M      -0.074400
     14 C13          5.9370    -0.3310     0.2410 c3         1 A9M      -0.074400
     15 C14          7.2700     0.3630    -0.1170 c3         1 A9M      -0.074400
     16 C15          8.5070    -0.3960     0.4120 c3         1 A9M      -0.074400
     17 C16          9.8400     0.2980     0.0530 c3         1 A9M      -0.074400
     18 C17         11.0770    -0.4610     0.5810 c3         1 A9M      -0.074400
     19 C18         12.4100     0.2330     0.2230 c3         1 A9M      -0.075400
     20 C19         13.6470    -0.5260     0.7510 c3         1 A9M      -0.075400
     21 C20         14.9770     0.1660     0.3930 c3         1 A9M      -0.088100
     22 C22        -11.2280    -1.0810     1.7290 c3         1 A9M       0.142600
     23 C23        -11.4420     0.1200     0.7730 c3         1 A9M       0.101000
     24 OAC        -10.4190    -0.7010     2.8550 oh         1 A9M      -0.670000
     25 NAX        -10.1900     0.6500     0.2130 ns         1 A9M      -0.507900
     26 H2          -8.0820     0.8030    -2.2420 hc         1 A9M       0.054700
     27 H2A         -8.1420     1.7630    -0.7280 hc         1 A9M       0.054700
     28 H3          -6.9890    -0.1040     0.4730 hc         1 A9M       0.055200
     29 H3A         -6.9090    -1.0280    -1.0270 hc         1 A9M       0.055200
     30 H4          -5.5030     0.7800    -2.0650 hc         1 A9M       0.035200
     31 H4A         -5.5810     1.7020    -0.5630 hc         1 A9M       0.035200
     32 H5          -4.4170    -0.1690     0.6460 hc         1 A9M       0.040200
     33 H5A         -4.3390    -1.0910    -0.8550 hc         1 A9M       0.040200
     34 H6          -2.9340     0.7160    -1.8920 hc         1 A9M       0.036200
     35 H6A         -3.0110     1.6380    -0.3900 hc         1 A9M       0.036200
     36 H7          -1.8470    -0.2330     0.8190 hc         1 A9M       0.038200
     37 H7A         -1.7700    -1.1550    -0.6830 hc         1 A9M       0.038200
     38 H8          -0.3640     0.6520    -1.7200 hc         1 A9M       0.036700
     39 H8A         -0.4420     1.5740    -0.2180 hc         1 A9M       0.036700
     40 H9           0.7230    -0.2970     0.9900 hc         1 A9M       0.037700
     41 H9A          0.8000    -1.2190    -0.5110 hc         1 A9M       0.037700
     42 H10          2.2050     0.5870    -1.5490 hc         1 A9M       0.036700
     43 H10A         2.1280     1.5090    -0.0470 hc         1 A9M       0.036700
     44 H11          3.2920    -0.3610     1.1610 hc         1 A9M       0.037700
     45 H11A         3.3690    -1.2840    -0.3400 hc         1 A9M       0.037700
     46 H12          4.7750     0.5230    -1.3780 hc         1 A9M       0.036700
     47 H12A         4.6980     1.4450     0.1240 hc         1 A9M       0.036700
     48 H13          5.8620    -0.4260     1.3320 hc         1 A9M       0.037700
     49 H13A         5.9390    -1.3480    -0.1700 hc         1 A9M       0.037700
     50 H14          7.3440     0.4580    -1.2080 hc         1 A9M       0.036700
     51 H14A         7.2680     1.3800     0.2940 hc         1 A9M       0.036700
     52 H15          8.4320    -0.4910     1.5020 hc         1 A9M       0.037700
     53 H15A         8.5080    -1.4130     0.0010 hc         1 A9M       0.037700
     54 H16          9.9140     0.3930    -1.0380 hc         1 A9M       0.036700
     55 H16A         9.8380     1.3150     0.4640 hc         1 A9M       0.036700
     56 H17         11.0020    -0.5560     1.6720 hc         1 A9M       0.036700
     57 H17A        11.0780    -1.4780     0.1700 hc         1 A9M       0.036700
     58 H18         12.4840     0.3280    -0.8680 hc         1 A9M       0.036700
     59 H18A        12.4080     1.2500     0.6340 hc         1 A9M       0.036700
     60 H19         13.5770    -0.6210     1.8420 hc         1 A9M       0.036700
     61 H19A        13.6530    -1.5430     0.3400 hc         1 A9M       0.036700
     62 H20         15.8240    -0.4080     0.7880 hc         1 A9M       0.031367
     63 H20A        15.0930     0.2440    -0.6950 hc         1 A9M       0.031367
     64 H20B        15.0170     1.1750     0.8200 hc         1 A9M       0.031367
     65 H22        -12.2090    -1.4380     2.0710 h1         1 A9M       0.030200
     66 H22A       -10.7510    -1.9020     1.1760 h1         1 A9M       0.030200
     67 H23        -12.0970    -0.1910    -0.0520 h1         1 A9M       0.060200
     68 H23A       -11.9540     0.9250     1.3160 h1         1 A9M       0.060200
     69 HOAC       -10.3090    -1.5030     3.4140 ho         1 A9M       0.447000
     70 HNAX        -9.7940     1.4860     0.6260 hn         1 A9M       0.320500
@<TRIPOS>BOND
     1     1     2 2   
     2     1     3 1   
     3     1    25 1   
     4     3     4 1   
     5     3    26 1   
     6     3    27 1   
     7     4     5 1   
     8     4    28 1   
     9     4    29 1   
    10     5     6 1   
    11     5    30 1   
    12     5    31 1   
    13     6     7 1   
    14     6    32 1   
    15     6    33 1   
    16     7     8 1   
    17     7    34 1   
    18     7    35 1   
    19     8     9 1   
    20     8    36 1   
    21     8    37 1   
    22     9    10 1   
    23     9    38 1   
    24     9    39 1   
    25    10    11 1   
    26    10    40 1   
    27    10    41 1   
    28    11    12 1   
    29    11    42 1   
    30    11    43 1   
    31    12    13 1   
    32    12    44 1   
    33    12    45 1   
    34    13    14 1   
    35    13    46 1   
    36    13    47 1   
    37    14    15 1   
    38    14    48 1   
    39    14    49 1   
    40    15    16 1   
    41    15    50 1   
    42    15    51 1   
    43    16    17 1   
    44    16    52 1   
    45    16    53 1   
    46    17    18 1   
    47    17    54 1   
    48    17    55 1   
    49    18    19 1   
    50    18    56 1   
    51    18    57 1   
    52    19    20 1   
    53    19    58 1   
    54    19    59 1   
    55    20    21 1   
    56    20    60 1   
    57    20    61 1   
    58    21    62 1   
    59    21    63 1   
    60    21    64 1   
    61    22    23 1   
    62    22    24 1   
    63    22    65 1   
    64    22    66 1   
    65    23    25 1   
    66    23    67 1   
    67    23    68 1   
    68    24    69 1   
    69    25    70 1   
@<TRIPOS>SUBSTRUCTURE
     1 A9M         1 TEMP              0 ****  ****    0 ROOT
