@<TRIPOS>MOLECULE
A9N
   37    39     1     0     0
SMALL
bcc


@<TRIPOS>ATOM
      1 O3           3.0350    -1.4200     1.8870 o          1 A9N      -0.604800
      2 S            2.3300    -0.2500     1.3900 sy         1 A9N       1.292200
      3 O2           1.7560     0.6900     2.3400 o          1 A9N      -0.604800
      4 N2           3.3920     0.6060     0.4740 n7         1 A9N      -0.805100
      5 C13          2.8980     1.7950    -0.2060 cx         1 A9N       0.201900
      6 C15          3.2800     2.0200    -1.6150 cu         1 A9N      -0.195200
      7 C14          2.0430     1.7030    -1.4240 cu         1 A9N      -0.195200
      8 C11          1.0170    -0.7610     0.2960 ca         1 A9N      -0.290500
      9 C9           1.2380    -1.6950    -0.7230 ca         1 A9N       0.014700
     10 C10          2.5350    -2.4130    -0.9550 c3         1 A9N      -0.070800
     11 C8           0.1600    -1.9620    -1.5630 ca         1 A9N      -0.152000
     12 C7          -1.0660    -1.3360    -1.4120 ca         1 A9N      -0.068000
     13 C12         -0.2150    -0.1460     0.4720 ca         1 A9N      -0.031000
     14 C6          -1.2760    -0.4170    -0.3870 ca         1 A9N      -0.020000
     15 C5          -2.5630     0.2580    -0.2180 cc         1 A9N      -0.320600
     16 C2          -3.8720    -0.3110    -0.2560 cc         1 A9N       0.358600
     17 C1          -4.2540    -1.7310    -0.4770 c3         1 A9N      -0.135400
     18 C3          -2.7950     1.5760     0.0270 cd         1 A9N       0.318000
     19 C4          -1.9050     2.7490     0.1790 c3         1 A9N      -0.141400
     20 O1          -4.1090     1.7760     0.1290 os         1 A9N      -0.113100
     21 N1          -4.7770     0.5980    -0.0430 nd         1 A9N      -0.362300
     22 H2           4.0290     0.0260    -0.0620 hn         1 A9N       0.429800
     23 H13          2.7990     2.6270     0.4850 h1         1 A9N       0.117700
     24 H15          4.0950     2.2850    -2.2670 ha         1 A9N       0.197000
     25 H14          1.0580     1.5100    -1.8130 ha         1 A9N       0.197000
     26 H12         -0.3560     0.5480     1.2890 ha         1 A9N       0.165000
     27 H101         2.7820    -3.0740    -0.1260 hc         1 A9N       0.057033
     28 H102         2.4700    -3.0150    -1.8570 hc         1 A9N       0.057033
     29 H103         3.3730    -1.7290    -1.0870 hc         1 A9N       0.057033
     30 H8           0.2890    -2.6740    -2.3670 ha         1 A9N       0.134000
     31 H7          -1.8580    -1.5560    -2.1150 ha         1 A9N       0.138000
     32 H11C        -3.6590    -2.3940     0.1500 hc         1 A9N       0.057700
     33 H12C        -5.3060    -1.8870    -0.2470 hc         1 A9N       0.057700
     34 H13C        -4.0890    -2.0270    -1.5130 hc         1 A9N       0.057700
     35 H41C        -2.3200     3.6250    -0.3190 hc         1 A9N       0.066367
     36 H42C        -1.7560     3.0000     1.2300 hc         1 A9N       0.066367
     37 H43C        -0.9290     2.5420    -0.2550 hc         1 A9N       0.066367
@<TRIPOS>BOND
     1     1     2 2   
     2     2     3 2   
     3     2     4 1   
     4     2     8 1   
     5     4     5 1   
     6     4    22 1   
     7     5     6 1   
     8     5     7 1   
     9     5    23 1   
    10     6     7 2   
    11     6    24 1   
    12     7    25 1   
    13     8     9 ar  
    14     8    13 ar  
    15     9    10 1   
    16     9    11 ar  
    17    10    27 1   
    18    10    28 1   
    19    10    29 1   
    20    11    12 ar  
    21    11    30 1   
    22    12    14 ar  
    23    12    31 1   
    24    13    14 ar  
    25    13    26 1   
    26    14    15 1   
    27    15    16 1   
    28    15    18 2   
    29    16    17 1   
    30    16    21 2   
    31    17    32 1   
    32    17    33 1   
    33    17    34 1   
    34    18    19 1   
    35    18    20 1   
    36    19    35 1   
    37    19    36 1   
    38    19    37 1   
    39    20    21 1   
@<TRIPOS>SUBSTRUCTURE
     1 A9N         1 TEMP              0 ****  ****    0 ROOT
