@<TRIPOS>MOLECULE
A9N
   37    39     1     0     0
SMALL
No Charge or Current Charge


@<TRIPOS>ATOM
      1 O3           3.6140    -1.2540     1.0500 o          1 A9N      -0.534000
      2 S            2.4830    -0.3390     1.2080 sy         1 A9N       1.150600
      3 O2           2.0280     0.1170     2.5240 o          1 A9N      -0.534000
      4 N2           2.9210     1.0530     0.4030 n7         1 A9N      -0.860300
      5 C13          2.8780     1.0220    -1.0250 cx         1 A9N       0.201900
      6 C15          2.5570     2.4400    -1.2930 cu         1 A9N      -0.245200
      7 C14          3.6690     2.0180    -1.7780 cu         1 A9N      -0.245200
      8 C11          1.0350    -0.8670     0.2390 ca         1 A9N      -0.290500
      9 C9           1.0550    -1.8910    -0.7480 ca         1 A9N       0.014700
     10 C10          2.3060    -2.6770    -1.1280 c3         1 A9N      -0.070800
     11 C8          -0.1400    -2.2000    -1.4240 ca         1 A9N      -0.134000
     12 C7          -1.3310    -1.5120    -1.1540 ca         1 A9N      -0.050000
     13 C12         -0.1730    -0.1770     0.4920 ca         1 A9N      -0.013000
     14 C6          -1.3640    -0.4790    -0.2000 ca         1 A9N      -0.020000
     15 C5          -2.6110     0.2610     0.0760 cc         1 A9N      -0.190000
     16 C2          -3.9760    -0.0970    -0.0620 cc         1 A9N       0.293300
     17 C1          -4.4680    -1.4920    -0.3330 c3         1 A9N      -0.135400
     18 C3          -2.6480     1.6100     0.2960 cd         1 A9N       0.208300
     19 C4          -1.5720     2.6640     0.3440 c3         1 A9N      -0.141400
     20 O1          -3.9500     2.0310     0.3670 os         1 A9N      -0.068700
     21 N1          -4.8120     0.9090     0.1280 nd         1 A9N      -0.362300
     22 H2           3.8870     1.1420     0.7060 hn         1 A9N       0.485000
     23 H13          2.0110     0.9910    -1.6920 h1         1 A9N       0.117700
     24 H15          1.8360     3.2320    -1.1290 ha         1 A9N       0.247000
     25 H14          4.5790     2.1840    -2.3430 ha         1 A9N       0.247000
     26 H12         -0.1870     0.5900     1.2610 ha         1 A9N       0.147000
     27 H101         2.6540    -3.2980    -0.2940 hc         1 A9N       0.057033
     28 H102         2.1220    -3.3530    -1.9710 hc         1 A9N       0.057033
     29 H103         3.1220    -2.0120    -1.4330 hc         1 A9N       0.057033
     30 H8          -0.1490    -2.9800    -2.1830 ha         1 A9N       0.116000
     31 H7          -2.2160    -1.7640    -1.7280 ha         1 A9N       0.120000
     32 H11C        -3.7960    -2.2410     0.1030 hc         1 A9N       0.057700
     33 H12C        -5.4600    -1.6480     0.1050 hc         1 A9N       0.057700
     34 H13C        -4.5460    -1.6760    -1.4100 hc         1 A9N       0.057700
     35 H41C        -1.9750     3.6480     0.0770 hc         1 A9N       0.066367
     36 H42C        -1.1440     2.7450     1.3500 hc         1 A9N       0.066367
     37 H43C        -0.7630     2.4410    -0.3610 hc         1 A9N       0.066367
@<TRIPOS>BOND
     1     1     2 2   
     2     2     3 2   
     3     2     4 1   
     4     2     8 1   
     5     4     5 1   
     6     4    22 1   
     7     5     6 1   
     8     5     7 1   
     9     5    23 1   
    10     6     7 2   
    11     6    24 1   
    12     7    25 1   
    13     8     9 ar  
    14     8    13 ar  
    15     9    10 1   
    16     9    11 ar  
    17    10    27 1   
    18    10    28 1   
    19    10    29 1   
    20    11    12 ar  
    21    11    30 1   
    22    12    14 ar  
    23    12    31 1   
    24    13    14 ar  
    25    13    26 1   
    26    14    15 1   
    27    15    16 1   
    28    15    18 2   
    29    16    17 1   
    30    16    21 2   
    31    17    32 1   
    32    17    33 1   
    33    17    34 1   
    34    18    19 1   
    35    18    20 1   
    36    19    35 1   
    37    19    36 1   
    38    19    37 1   
    39    20    21 1   
@<TRIPOS>SUBSTRUCTURE
     1 A9N         1 TEMP              0 ****  ****    0 ROOT
