@<TRIPOS>MOLECULE
A9O
   27    28     1     0     0
SMALL
abcg2


@<TRIPOS>ATOM
      1 C5           0.8450     2.8230    -0.3030 c3         1 A9O      -0.133400
      2 C4           1.2760     1.4070    -0.1580 cc         1 A9O       0.291300
      3 N            2.5360     1.0890    -0.1370 nd         1 A9O      -0.367300
      4 O            2.5880    -0.2680     0.0140 os         1 A9O      -0.072700
      5 C6           0.4540     0.2490    -0.0080 cc         1 A9O      -0.181000
      6 C3           1.3530    -0.7670     0.0930 cd         1 A9O       0.201300
      7 C2           1.2090    -2.2390     0.2310 c3         1 A9O      -0.119700
      8 C1           1.9230    -3.0220    -0.8680 c3         1 A9O      -0.087100
      9 C7          -1.0090     0.1870     0.0510 ca         1 A9O      -0.001000
     10 C12         -1.7890     0.8140    -0.9210 ca         1 A9O      -0.101500
     11 C11         -3.1740     0.7580    -0.8610 ca         1 A9O      -0.110000
     12 C10         -3.8020     0.0690     0.1680 ca         1 A9O      -0.108000
     13 C9          -3.0350    -0.5600     1.1400 ca         1 A9O      -0.110000
     14 C8          -1.6500    -0.4970     1.0850 ca         1 A9O      -0.101500
     15 H51C         0.4660     3.0160    -1.3070 hc         1 A9O       0.056700
     16 H52C         0.0430     3.0560     0.3970 hc         1 A9O       0.056700
     17 H53C         1.6750     3.5020    -0.1220 hc         1 A9O       0.056700
     18 H21C         1.5840    -2.5500     1.2100 hc         1 A9O       0.064700
     19 H22C         0.1440    -2.4730     0.2240 hc         1 A9O       0.064700
     20 H11C         3.0010    -2.8640    -0.8440 hc         1 A9O       0.043700
     21 H12C         1.7420    -4.0890    -0.7380 hc         1 A9O       0.043700
     22 H13C         1.5600    -2.7390    -1.8550 hc         1 A9O       0.043700
     23 H12         -1.3110     1.3350    -1.7410 ha         1 A9O       0.114000
     24 H8          -1.0620    -0.9690     1.8620 ha         1 A9O       0.114000
     25 H11         -3.7630     1.2490    -1.6250 ha         1 A9O       0.113000
     26 H10         -4.8820     0.0240     0.2140 ha         1 A9O       0.113000
     27 H9          -3.5150    -1.0940     1.9500 ha         1 A9O       0.113000
@<TRIPOS>BOND
     1     1     2 1   
     2     1    15 1   
     3     1    16 1   
     4     1    17 1   
     5     2     3 2   
     6     2     5 1   
     7     3     4 1   
     8     4     6 1   
     9     5     6 2   
    10     5     9 1   
    11     6     7 1   
    12     7     8 1   
    13     7    18 1   
    14     7    19 1   
    15     8    20 1   
    16     8    21 1   
    17     8    22 1   
    18     9    10 ar  
    19     9    14 ar  
    20    10    11 ar  
    21    10    23 1   
    22    11    12 ar  
    23    11    25 1   
    24    12    13 ar  
    25    12    26 1   
    26    13    14 ar  
    27    13    27 1   
    28    14    24 1   
@<TRIPOS>SUBSTRUCTURE
     1 A9O         1 TEMP              0 ****  ****    0 ROOT
