@<TRIPOS>MOLECULE
A9O
   27    28     1     0     0
SMALL
No Charge or Current Charge


@<TRIPOS>ATOM
      1 C5           0.8620     2.8540    -0.4820 c3         1 A9O      -0.133400
      2 C4           1.3200     1.4310    -0.3150 cc         1 A9O       0.291300
      3 N            2.5950     1.0980    -0.4120 nd         1 A9O      -0.367300
      4 O            2.5990    -0.3150    -0.1650 os         1 A9O      -0.072700
      5 C6           0.4700     0.3470     0.0200 cc         1 A9O      -0.181000
      6 C3           1.3100    -0.7340     0.0480 cd         1 A9O       0.201300
      7 C2           1.0510    -2.2230     0.1510 c3         1 A9O      -0.119700
      8 C1           2.0600    -3.0960    -0.6270 c3         1 A9O      -0.087100
      9 C7          -0.9980     0.2340     0.0890 ca         1 A9O      -0.001000
     10 C12         -1.8270     1.0670    -0.6940 ca         1 A9O      -0.101500
     11 C11         -3.2280     0.9660    -0.6220 ca         1 A9O      -0.110000
     12 C10         -3.8230     0.0360     0.2420 ca         1 A9O      -0.108000
     13 C9          -3.0150    -0.7920     1.0350 ca         1 A9O      -0.110000
     14 C8          -1.6150    -0.6920     0.9600 ca         1 A9O      -0.101500
     15 H51C         0.5730     3.0510    -1.5210 hc         1 A9O       0.056700
     16 H52C         0.0070     3.0740     0.1670 hc         1 A9O       0.056700
     17 H53C         1.6620     3.5550    -0.2200 hc         1 A9O       0.056700
     18 H21C         1.0620    -2.5260     1.2050 hc         1 A9O       0.064700
     19 H22C         0.0520    -2.4540    -0.2350 hc         1 A9O       0.064700
     20 H11C         3.0740    -2.9780    -0.2260 hc         1 A9O       0.043700
     21 H12C         1.7870    -4.1550    -0.5520 hc         1 A9O       0.043700
     22 H13C         2.0720    -2.8200    -1.6890 hc         1 A9O       0.043700
     23 H12         -1.3970     1.7760    -1.3940 ha         1 A9O       0.114000
     24 H8          -1.0150    -1.3190     1.6130 ha         1 A9O       0.114000
     25 H11         -3.8510     1.6080    -1.2410 ha         1 A9O       0.113000
     26 H10         -4.9070    -0.0410     0.3000 ha         1 A9O       0.113000
     27 H9          -3.4730    -1.5070     1.7160 ha         1 A9O       0.113000
@<TRIPOS>BOND
     1     1     2 1   
     2     1    15 1   
     3     1    16 1   
     4     1    17 1   
     5     2     3 2   
     6     2     5 1   
     7     3     4 1   
     8     4     6 1   
     9     5     6 2   
    10     5     9 1   
    11     6     7 1   
    12     7     8 1   
    13     7    18 1   
    14     7    19 1   
    15     8    20 1   
    16     8    21 1   
    17     8    22 1   
    18     9    10 ar  
    19     9    14 ar  
    20    10    11 ar  
    21    10    23 1   
    22    11    12 ar  
    23    11    25 1   
    24    12    13 ar  
    25    12    26 1   
    26    13    14 ar  
    27    13    27 1   
    28    14    24 1   
@<TRIPOS>SUBSTRUCTURE
     1 A9O         1 TEMP              0 ****  ****    0 ROOT
