@<TRIPOS>MOLECULE
A9P
   24    25     1     0     0
SMALL
bcc


@<TRIPOS>ATOM
      1 C5           1.2890     2.5250    -0.2760 c3         1 A9P      -0.134400
      2 C4           1.6020     1.0800    -0.1290 cc         1 A9P       0.357600
      3 N            2.8360     0.6760    -0.1080 nd         1 A9P      -0.368300
      4 O            2.7960    -0.6830     0.0130 os         1 A9P      -0.118100
      5 C6           0.7020    -0.0230    -0.0260 cc         1 A9P      -0.309600
      6 C3           1.5300    -1.1000     0.0580 cd         1 A9P       0.310000
      7 C2           1.2920    -2.5540     0.1950 c3         1 A9P      -0.138400
      8 C7          -0.7630    -0.0030    -0.0170 ca         1 A9P      -0.001000
      9 C12         -1.4930    -0.8610    -0.8420 ca         1 A9P      -0.119000
     10 C11         -2.8800    -0.8610    -0.8140 ca         1 A9P      -0.128000
     11 C10         -3.5610     0.0050     0.0310 ca         1 A9P      -0.126000
     12 C9          -2.8450     0.8710     0.8480 ca         1 A9P      -0.128000
     13 C8          -1.4580     0.8660     0.8260 ca         1 A9P      -0.119000
     14 H51C         0.5180     2.6780    -1.0320 hc         1 A9P       0.056700
     15 H52C         0.9160     2.9460     0.6570 hc         1 A9P       0.056700
     16 H53C         2.1760     3.0840    -0.5660 hc         1 A9P       0.056700
     17 H21C         1.9260    -2.9820     0.9720 hc         1 A9P       0.064033
     18 H22C         0.2530    -2.7440     0.4570 hc         1 A9P       0.064033
     19 H23C         1.5060    -3.0800    -0.7370 hc         1 A9P       0.064033
     20 H12         -0.9720    -1.5250    -1.5210 ha         1 A9P       0.132000
     21 H8          -0.9120     1.5290     1.4850 ha         1 A9P       0.132000
     22 H11         -3.4300    -1.5340    -1.4590 ha         1 A9P       0.131500
     23 H10         -4.6430     0.0070     0.0520 ha         1 A9P       0.131000
     24 H9          -3.3690     1.5470     1.5120 ha         1 A9P       0.131500
@<TRIPOS>BOND
     1     1     2 1   
     2     1    14 1   
     3     1    15 1   
     4     1    16 1   
     5     2     3 2   
     6     2     5 1   
     7     3     4 1   
     8     4     6 1   
     9     5     6 2   
    10     5     8 1   
    11     6     7 1   
    12     7    17 1   
    13     7    18 1   
    14     7    19 1   
    15     8     9 ar  
    16     8    13 ar  
    17     9    10 ar  
    18     9    20 1   
    19    10    11 ar  
    20    10    22 1   
    21    11    12 ar  
    22    11    23 1   
    23    12    13 ar  
    24    12    24 1   
    25    13    21 1   
@<TRIPOS>SUBSTRUCTURE
     1 A9P         1 TEMP              0 ****  ****    0 ROOT
