@<TRIPOS>MOLECULE
A9P
   24    25     1     0     0
SMALL
No Charge or Current Charge


@<TRIPOS>ATOM
      1 C5           1.3080     2.5650    -0.0640 c3         1 A9P      -0.134400
      2 C4           1.6750     1.1070    -0.0350 cc         1 A9P       0.292300
      3 N            2.9350     0.7120     0.0310 nd         1 A9P      -0.368300
      4 O            2.8480    -0.7200     0.0120 os         1 A9P      -0.073700
      5 C6           0.7470     0.0400    -0.1390 cc         1 A9P      -0.179000
      6 C3           1.5280    -1.0810    -0.0590 cd         1 A9P       0.200300
      7 C2           1.2010    -2.5450     0.0770 c3         1 A9P      -0.138400
      8 C7          -0.7270     0.0050    -0.0840 ca         1 A9P      -0.001000
      9 C12         -1.4560    -1.0200    -0.7290 ca         1 A9P      -0.101000
     10 C11         -2.8610    -1.0470    -0.6830 ca         1 A9P      -0.110000
     11 C10         -3.5620    -0.0480     0.0080 ca         1 A9P      -0.108000
     12 C9          -2.8550     0.9800     0.6480 ca         1 A9P      -0.110000
     13 C8          -1.4510     1.0080     0.6000 ca         1 A9P      -0.101000
     14 H51C         0.4210     2.7380    -0.6840 hc         1 A9P       0.056700
     15 H52C         1.1080     2.9370     0.9480 hc         1 A9P       0.056700
     16 H53C         2.1230     3.1650    -0.4840 hc         1 A9P       0.056700
     17 H21C         2.0230    -3.0870     0.5590 hc         1 A9P       0.064033
     18 H22C         0.3060    -2.6990     0.6910 hc         1 A9P       0.064033
     19 H23C         1.0330    -3.0040    -0.9040 hc         1 A9P       0.064033
     20 H12         -0.9440    -1.7850    -1.3040 ha         1 A9P       0.114000
     21 H8          -0.9330     1.7980     1.1320 ha         1 A9P       0.114000
     22 H11         -3.4050    -1.8400    -1.1910 ha         1 A9P       0.113500
     23 H10         -4.6500    -0.0690     0.0440 ha         1 A9P       0.113000
     24 H9          -3.3950     1.7540     1.1890 ha         1 A9P       0.113500
@<TRIPOS>BOND
     1     1     2 1   
     2     1    14 1   
     3     1    15 1   
     4     1    16 1   
     5     2     3 2   
     6     2     5 1   
     7     3     4 1   
     8     4     6 1   
     9     5     6 2   
    10     5     8 1   
    11     6     7 1   
    12     7    17 1   
    13     7    18 1   
    14     7    19 1   
    15     8     9 ar  
    16     8    13 ar  
    17     9    10 ar  
    18     9    20 1   
    19    10    11 ar  
    20    10    22 1   
    21    11    12 ar  
    22    11    23 1   
    23    12    13 ar  
    24    12    24 1   
    25    13    21 1   
@<TRIPOS>SUBSTRUCTURE
     1 A9P         1 TEMP              0 ****  ****    0 ROOT
