@<TRIPOS>MOLECULE
A9Q
   50    52     1     0     0
SMALL
bcc


@<TRIPOS>ATOM
      1 C4          -1.0510    -1.2090    -1.1050 ca         1 A9Q       0.093600
      2 C14          3.8000    -0.6960     0.5390 ca         1 A9Q       0.127100
      3 C5          -0.5280     0.0730    -1.1230 ca         1 A9Q      -0.117300
      4 C6          -1.3470     1.1620    -0.8480 ca         1 A9Q      -0.150000
      5 C8           1.1130    -2.1960    -1.6650 c          1 A9Q       0.848500
      6 C10          0.9190     0.2840    -1.4370 c6         1 A9Q       0.165300
      7 C12          3.7780    -0.1100    -0.7380 ca         1 A9Q      -0.116300
      8 C13          4.4230     1.0950    -0.9380 ca         1 A9Q      -0.123000
      9 C3          -2.3990    -1.4010    -0.8140 ca         1 A9Q      -0.153000
     10 C1          -2.6930     0.9890    -0.5580 ca         1 A9Q       0.085100
     11 C15          4.4630    -0.0480     1.5700 ca         1 A9Q      -0.184000
     12 C16          5.1160     1.1660     1.3530 ca         1 A9Q      -0.169000
     13 C17          5.1050     1.7450     0.0940 ca         1 A9Q       0.099100
     14 C2          -3.2030    -0.3120    -0.5590 ca         1 A9Q       0.150100
     15 C21          3.1380    -2.4970     1.9330 c3         1 A9Q       0.123700
     16 C28         -3.0900     3.3110    -0.2930 c3         1 A9Q       0.127700
     17 N25         -6.0300     0.8540     1.3010 n8         1 A9Q      -0.912700
     18 N7          -0.2230    -2.2830    -1.3800 ns         1 A9Q      -0.479100
     19 N9           1.6500    -0.9510    -1.6550 n          1 A9Q      -0.480800
     20 O18          5.7070     2.9120    -0.2270 os         1 A9Q      -0.319900
     21 O22         -3.5610     1.9760    -0.2720 os         1 A9Q      -0.344900
     22 O23         -4.5520    -0.5150    -0.3550 os         1 A9Q      -0.471800
     23 O29          1.7510    -3.2090    -1.9190 o          1 A9Q      -0.658500
     24 S24         -5.1550    -0.5040     1.1690 s6         1 A9Q       1.532400
     25 H1          -0.9110     2.1520    -0.8680 ha         1 A9Q       0.142000
     26 H2           3.2100    -0.1680    -2.7870 h1         1 A9Q       0.069700
     27 H3           3.5050    -1.7540    -2.0970 h1         1 A9Q       0.069700
     28 H4           1.0200     0.9210    -2.3240 h1         1 A9Q       0.051700
     29 H5           1.3870     0.8360    -0.6150 h1         1 A9Q       0.051700
     30 H6           4.4030     1.5490    -1.9230 ha         1 A9Q       0.144000
     31 H7          -2.8250    -2.3970    -0.8010 ha         1 A9Q       0.159000
     32 H8           4.4940    -0.4680     2.5660 ha         1 A9Q       0.137000
     33 H9           5.6240     1.6300     2.1870 ha         1 A9Q       0.135000
     34 H10          6.8570     4.4720     0.3190 h1         1 A9Q       0.039367
     35 H11          5.7950     3.8920     1.6130 h1         1 A9Q       0.039367
     36 H12          7.2490     2.9700     1.1740 h1         1 A9Q       0.039367
     37 H13          2.5730    -3.4190     1.8140 h1         1 A9Q       0.041367
     38 H14          4.1420    -2.7440     2.2890 h1         1 A9Q       0.041367
     39 H15          2.6440    -1.8770     2.6860 h1         1 A9Q       0.041367
     40 H16         -3.9430     3.9420    -0.0600 h1         1 A9Q       0.046033
     41 H17         -2.3110     3.4780     0.4560 h1         1 A9Q       0.046033
     42 H18         -2.7030     3.5860    -1.2760 h1         1 A9Q       0.046033
     43 H19         -6.8560     0.8760     0.7120 hn         1 A9Q       0.435800
     44 H20         -5.4890     1.7080     1.2270 hn         1 A9Q       0.435800
     45 H21         -0.6160    -3.2110    -1.4010 hn         1 A9Q       0.343500
     46 C11          3.0690    -0.7790    -1.8890 c3         1 A9Q       0.165300
     47 O19          3.1610    -1.8770     0.6670 os         1 A9Q      -0.304900
     48 C20          6.4340     3.5830     0.7800 c3         1 A9Q       0.125700
     49 O26         -4.0380    -0.4230     2.0770 o          1 A9Q      -0.608300
     50 O27         -6.0720    -1.6140     1.1880 o          1 A9Q      -0.608300
@<TRIPOS>BOND
     1     1     3 ar  
     2     1     9 ar  
     3     1    18 1   
     4     2     7 ar  
     5     2    11 ar  
     6     2    47 1   
     7     3     4 ar  
     8     3     6 1   
     9     4    10 ar  
    10     4    25 1   
    11     5    18 1   
    12     5    19 1   
    13     5    23 2   
    14     6    19 1   
    15     6    28 1   
    16     6    29 1   
    17     7     8 ar  
    18     7    46 1   
    19     8    13 ar  
    20     8    30 1   
    21     9    14 ar  
    22     9    31 1   
    23    10    14 ar  
    24    10    21 1   
    25    11    12 ar  
    26    11    32 1   
    27    12    13 ar  
    28    12    33 1   
    29    13    20 1   
    30    14    22 1   
    31    15    37 1   
    32    15    38 1   
    33    15    39 1   
    34    15    47 1   
    35    16    21 1   
    36    16    40 1   
    37    16    41 1   
    38    16    42 1   
    39    17    24 1   
    40    17    43 1   
    41    17    44 1   
    42    18    45 1   
    43    19    46 1   
    44    20    48 1   
    45    22    24 1   
    46    24    49 2   
    47    24    50 2   
    48    26    46 1   
    49    27    46 1   
    50    34    48 1   
    51    35    48 1   
    52    36    48 1   
@<TRIPOS>SUBSTRUCTURE
     1 A9Q         1 TEMP              0 ****  ****    0 ROOT
