@<TRIPOS>MOLECULE
A9Q
   50    52     1     0     0
SMALL
No Charge or Current Charge


@<TRIPOS>ATOM
      1 C4          -1.2480    -0.8510    -1.6270 ca         1 A9Q       0.001000
      2 C14          4.0460    -0.5780     0.9300 ca         1 A9Q       0.127100
      3 C5          -0.5700    -0.0940    -0.6630 ca         1 A9Q      -0.117300
      4 C6          -1.2740     0.8450     0.1150 ca         1 A9Q      -0.132000
      5 C8           0.8330    -2.0420    -2.3070 c          1 A9Q       0.639000
      6 C10          0.9360    -0.2820    -0.4670 c6         1 A9Q       0.165300
      7 C12          3.8120    -0.4950    -0.4600 ca         1 A9Q      -0.116300
      8 C13          4.3070     0.6080    -1.1860 ca         1 A9Q      -0.105000
      9 C3          -2.6280    -0.6870    -1.8210 ca         1 A9Q      -0.135000
     10 C1          -2.6650     1.0210    -0.0700 ca         1 A9Q       0.085100
     11 C15          4.7770     0.4450     1.5760 ca         1 A9Q      -0.166000
     12 C16          5.2680     1.5400     0.8430 ca         1 A9Q      -0.151000
     13 C17          5.0330     1.6240    -0.5450 ca         1 A9Q       0.099100
     14 C2          -3.3380     0.2370    -1.0360 ca         1 A9Q       0.150100
     15 C21          3.7080    -1.8200     3.0430 c3         1 A9Q       0.146900
     16 C28         -2.7860     2.8020     1.6470 c3         1 A9Q       0.150900
     17 N25         -5.9510     0.4940     0.8350 n8         1 A9Q      -1.023100
     18 N7          -0.5150    -1.7740    -2.3890 ns         1 A9Q      -0.153000
     19 N9           1.5680    -1.2950    -1.3600 n          1 A9Q      -0.413800
     20 O18          5.4880     2.6760    -1.3150 os         1 A9Q      -0.343100
     21 O22         -3.3960     1.9430     0.6640 os         1 A9Q      -0.368100
     22 O23         -4.6860     0.4030    -1.2490 os         1 A9Q      -0.471800
     23 O29          1.3570    -2.8870    -3.0190 o          1 A9Q      -0.583000
     24 S24         -5.7310    -0.5250    -0.4040 s6         1 A9Q       1.390800
     25 H1          -0.7280     1.4280     0.8520 ha         1 A9Q       0.124000
     26 H2           3.4650    -1.7020    -2.1900 h1         1 A9Q       0.069700
     27 H3           3.1280    -2.5350    -0.6780 h1         1 A9Q       0.069700
     28 H4           1.4250     0.6890    -0.6270 h1         1 A9Q       0.051700
     29 H5           1.1170    -0.5700     0.5790 h1         1 A9Q       0.051700
     30 H6           4.1250     0.6800    -2.2550 ha         1 A9Q       0.126000
     31 H7          -3.1510    -1.2710    -2.5740 ha         1 A9Q       0.141000
     32 H8           4.9720     0.4100     2.6440 ha         1 A9Q       0.119000
     33 H9           5.8260     2.3110     1.3690 ha         1 A9Q       0.117000
     34 H10          6.4990     4.4920    -1.5390 h1         1 A9Q       0.039367
     35 H11          5.6520     4.2940     0.0100 h1         1 A9Q       0.039367
     36 H12          7.1710     3.4100    -0.3010 h1         1 A9Q       0.039367
     37 H13          3.2250    -2.7450     3.3810 h1         1 A9Q       0.041367
     38 H14          4.7710    -1.8750     3.3060 h1         1 A9Q       0.041367
     39 H15          3.2520    -0.9810     3.5840 h1         1 A9Q       0.041367
     40 H16         -3.5410     3.4550     2.1020 h1         1 A9Q       0.046033
     41 H17         -2.3220     2.2110     2.4480 h1         1 A9Q       0.046033
     42 H18         -2.0190     3.4380     1.1870 h1         1 A9Q       0.046033
     43 H19         -6.7640     0.9920     0.4900 hn         1 A9Q       0.491000
     44 H20         -5.1820     1.1340     0.6380 hn         1 A9Q       0.491000
     45 H21         -1.0350    -2.3100    -3.0700 hn         1 A9Q       0.177000
     46 C11          3.0170    -1.5740    -1.1960 c3         1 A9Q       0.165300
     47 O19          3.5400    -1.6620     1.6230 os         1 A9Q      -0.328100
     48 C20          6.2380     3.7690    -0.7550 c3         1 A9Q       0.148900
     49 O26         -5.0770    -1.7210     0.1270 o          1 A9Q      -0.537500
     50 O27         -7.0140    -0.5780    -1.1010 o          1 A9Q      -0.537500
@<TRIPOS>BOND
     1     1     3 ar  
     2     1     9 ar  
     3     1    18 1   
     4     2     7 ar  
     5     2    11 ar  
     6     2    47 1   
     7     3     4 ar  
     8     3     6 1   
     9     4    10 ar  
    10     4    25 1   
    11     5    18 1   
    12     5    19 1   
    13     5    23 2   
    14     6    19 1   
    15     6    28 1   
    16     6    29 1   
    17     7     8 ar  
    18     7    46 1   
    19     8    13 ar  
    20     8    30 1   
    21     9    14 ar  
    22     9    31 1   
    23    10    14 ar  
    24    10    21 1   
    25    11    12 ar  
    26    11    32 1   
    27    12    13 ar  
    28    12    33 1   
    29    13    20 1   
    30    14    22 1   
    31    15    37 1   
    32    15    38 1   
    33    15    39 1   
    34    15    47 1   
    35    16    21 1   
    36    16    40 1   
    37    16    41 1   
    38    16    42 1   
    39    17    24 1   
    40    17    43 1   
    41    17    44 1   
    42    18    45 1   
    43    19    46 1   
    44    20    48 1   
    45    22    24 1   
    46    24    49 2   
    47    24    50 2   
    48    26    46 1   
    49    27    46 1   
    50    34    48 1   
    51    35    48 1   
    52    36    48 1   
@<TRIPOS>SUBSTRUCTURE
     1 A9Q         1 TEMP              0 ****  ****    0 ROOT
