@<TRIPOS>MOLECULE
A9R
   38    41     1     0     0
SMALL
bcc


@<TRIPOS>ATOM
      1 N3           4.2550     1.7790     0.4330 nc         1 A9R      -0.528800
      2 C4           3.6060     0.6670     0.7200 cd         1 A9R       0.343200
      3 C5           2.3770     1.7400    -0.7470 cc         1 A9R      -0.129300
      4 C6           2.3950     0.5790     0.0040 cd         1 A9R      -0.219300
      5 C7           1.3510    -0.4440     0.0450 cd         1 A9R      -0.031000
      6 C8           1.6650    -1.8450     0.0690 cd         1 A9R       0.167100
      7 C10          3.3580    -3.4940     0.1080 c3         1 A9R       0.119700
      8 C17         -2.3340    -0.8680    -0.0460 cc         1 A9R      -0.275900
      9 C20         -3.5120     2.6110     0.7360 ca         1 A9R      -0.086000
     10 C21         -4.6980     2.5900     0.0200 ca         1 A9R      -0.255300
     11 C22         -5.0240     1.4210    -0.6540 ca         1 A9R       0.414200
     12 N2           3.4990     2.4140    -0.4580 na         1 A9R       0.114400
     13 O9           2.9680    -2.1330     0.0980 os         1 A9R      -0.301900
     14 C11          0.6630    -2.7760     0.0380 cc         1 A9R      -0.221000
     15 C12          0.0430    -0.0690     0.0250 cc         1 A9R      -0.056300
     16 N13         -0.9550    -0.9960     0.0190 na         1 A9R       0.027700
     17 C14         -0.6770    -2.3480    -0.0060 cc         1 A9R       0.018700
     18 N15         -1.7860    -3.0640    -0.0820 nd         1 A9R      -0.309600
     19 C16         -2.7900    -2.1620    -0.1170 cd         1 A9R       0.078600
     20 C18         -3.1000     0.3690    -0.0020 ca         1 A9R       0.518100
     21 C19         -2.7040     1.4860     0.7380 ca         1 A9R      -0.255300
     22 N29         -4.2520     0.3460    -0.6780 nb         1 A9R      -0.667000
     23 H1           4.0160    -0.0290     1.4350 h4         1 A9R       0.046100
     24 H2           1.6590     2.1070    -1.4620 h4         1 A9R       0.172000
     25 H3           3.0130    -4.0170    -0.7870 h1         1 A9R       0.046700
     26 H4           4.4450    -3.5020     0.1270 h1         1 A9R       0.046700
     27 H5           2.9820    -4.0130     0.9920 h1         1 A9R       0.046700
     28 H6          -3.2220     3.4870     1.3020 ha         1 A9R       0.136000
     29 H7          -5.3580     3.4450    -0.0120 ha         1 A9R       0.143000
     30 H8          -5.9540     1.3550    -1.2100 h4         1 A9R       0.020100
     31 H9           4.9210     3.6120    -1.4000 h1         1 A9R       0.057367
     32 H10          3.2340     3.9870    -1.7760 h1         1 A9R       0.057367
     33 H11          3.9090     4.4480    -0.2060 h1         1 A9R       0.057367
     34 H12          0.8460    -3.8400     0.0270 ha         1 A9R       0.167000
     35 H13         -0.2460     0.9700     0.0030 h4         1 A9R       0.167000
     36 H14         -3.8250    -2.4660    -0.1700 h4         1 A9R       0.186000
     37 H15         -1.8060     1.4700     1.3390 ha         1 A9R       0.142000
     38 C1           3.9180     3.6890    -0.9860 c3         1 A9R       0.043600
@<TRIPOS>BOND
     1     1     2 2   
     2     1    12 1   
     3     2     4 1   
     4     2    23 1   
     5     3     4 2   
     6     3    12 1   
     7     3    24 1   
     8     4     5 1   
     9     5     6 1   
    10     5    15 2   
    11     6    13 1   
    12     6    14 2   
    13     7    13 1   
    14     7    25 1   
    15     7    26 1   
    16     7    27 1   
    17     8    16 1   
    18     8    19 2   
    19     8    20 1   
    20     9    10 ar  
    21     9    21 ar  
    22     9    28 1   
    23    10    11 ar  
    24    10    29 1   
    25    11    22 ar  
    26    11    30 1   
    27    12    38 1   
    28    14    17 1   
    29    14    34 1   
    30    15    16 1   
    31    15    35 1   
    32    16    17 1   
    33    17    18 2   
    34    18    19 1   
    35    19    36 1   
    36    20    21 ar  
    37    20    22 ar  
    38    21    37 1   
    39    31    38 1   
    40    32    38 1   
    41    33    38 1   
@<TRIPOS>SUBSTRUCTURE
     1 A9R         1 TEMP              0 ****  ****    0 ROOT
