@<TRIPOS>MOLECULE
A9R
   38    41     1     0     0
SMALL
No Charge or Current Charge


@<TRIPOS>ATOM
      1 N3           4.4300     1.5730    -0.3560 nc         1 A9R      -0.528800
      2 C4           3.8210     0.4110    -0.1990 cd         1 A9R       0.277900
      3 C5           2.1260     1.8740    -0.3320 cc         1 A9R      -0.162000
      4 C6           2.4070     0.5400    -0.1780 cd         1 A9R      -0.154000
      5 C7           1.3880    -0.4960    -0.0240 cd         1 A9R      -0.031000
      6 C8           1.7140    -1.9140     0.1410 cd         1 A9R       0.167100
      7 C10          3.4070    -3.7030     0.2930 c3         1 A9R       0.142900
      8 C17         -2.2540    -0.8200     0.1370 cc         1 A9R      -0.275900
      9 C20         -3.4750     2.7350     0.5150 ca         1 A9R      -0.068000
     10 C21         -4.6070     2.6520    -0.3090 ca         1 A9R      -0.172000
     11 C22         -4.9080     1.4310    -0.9350 ca         1 A9R       0.348900
     12 N2           3.3810     2.4660    -0.4370 na         1 A9R       0.135800
     13 O9           3.0280    -2.3190     0.1730 os         1 A9R      -0.325100
     14 C11          0.6940    -2.8430     0.2170 cc         1 A9R      -0.203000
     15 C12          0.0570    -0.0500    -0.0620 cc         1 A9R      -0.089000
     16 N13         -0.9050    -1.0360     0.1770 na         1 A9R       0.129100
     17 C14         -0.6400    -2.3720     0.1940 cc         1 A9R      -0.032000
     18 N15         -1.7770    -3.0480     0.1860 nd         1 A9R      -0.309600
     19 C16         -2.7910    -2.0920     0.1110 cd         1 A9R       0.028600
     20 C18         -3.0440     0.4000    -0.0100 ca         1 A9R       0.452800
     21 C19         -2.6870     1.5830     0.6670 ca         1 A9R      -0.172000
     22 N29         -4.1480     0.3220    -0.7880 nb         1 A9R      -0.667000
     23 H1           4.4380    -0.4710    -0.1090 h4         1 A9R       0.046100
     24 H2           1.2090     2.4460    -0.3750 h4         1 A9R       0.154000
     25 H3           3.0270    -4.2880    -0.5540 h1         1 A9R       0.046700
     26 H4           4.5000    -3.7970     0.3040 h1         1 A9R       0.046700
     27 H5           3.0210    -4.1360     1.2250 h1         1 A9R       0.046700
     28 H6          -3.2200     3.6610     1.0270 ha         1 A9R       0.118000
     29 H7          -5.2520     3.5130    -0.4590 ha         1 A9R       0.125000
     30 H8          -5.7850     1.3370    -1.5730 h4         1 A9R       0.020100
     31 H9           4.2070     4.0520    -1.5510 h1         1 A9R       0.057367
     32 H10          2.7070     4.4530    -0.6640 h1         1 A9R       0.057367
     33 H11          4.2480     4.2680     0.2260 h1         1 A9R       0.057367
     34 H12          0.8590    -3.9130     0.2770 ha         1 A9R       0.149000
     35 H13         -0.2870     0.9580    -0.2250 h4         1 A9R       0.149000
     36 H14         -3.8400    -2.3730     0.0460 h4         1 A9R       0.236000
     37 H15         -1.8200     1.6020     1.3200 ha         1 A9R       0.124000
     38 C1           3.6520     3.8990    -0.6180 c3         1 A9R       0.072900
@<TRIPOS>BOND
     1     1     2 2   
     2     1    12 1   
     3     2     4 1   
     4     2    23 1   
     5     3     4 2   
     6     3    12 1   
     7     3    24 1   
     8     4     5 1   
     9     5     6 1   
    10     5    15 2   
    11     6    13 1   
    12     6    14 2   
    13     7    13 1   
    14     7    25 1   
    15     7    26 1   
    16     7    27 1   
    17     8    16 1   
    18     8    19 2   
    19     8    20 1   
    20     9    10 ar  
    21     9    21 ar  
    22     9    28 1   
    23    10    11 ar  
    24    10    29 1   
    25    11    22 ar  
    26    11    30 1   
    27    12    38 1   
    28    14    17 1   
    29    14    34 1   
    30    15    16 1   
    31    15    35 1   
    32    16    17 1   
    33    17    18 2   
    34    18    19 1   
    35    19    36 1   
    36    20    21 ar  
    37    20    22 ar  
    38    21    37 1   
    39    31    38 1   
    40    32    38 1   
    41    33    38 1   
@<TRIPOS>SUBSTRUCTURE
     1 A9R         1 TEMP              0 ****  ****    0 ROOT
