@<TRIPOS>MOLECULE
A9S
   38    38     1     0     0
SMALL
No Charge or Current Charge


@<TRIPOS>ATOM
      1 O3           3.7900     1.1750     1.2680 o          1 A9S      -0.720500
      2 C10          4.5520     0.5470     0.5520 c          1 A9S       0.694200
      3 O1           5.7650     0.6750     0.6110 o          1 A9S      -0.720500
      4 C11          4.0240    -0.4510    -0.4400 ce         1 A9S      -0.198200
      5 C12          2.7340    -0.8090    -0.7580 cf         1 A9S      -0.164200
      6 C15          2.5110    -1.8730    -1.8280 c3         1 A9S      -0.044900
      7 C8           1.5270    -0.1910    -0.1890 cf         1 A9S      -0.079000
      8 C9           0.2780    -0.7340    -0.2130 c2         1 A9S      -0.358200
      9 C5          -0.9910    -0.0490     0.3610 c6         1 A9S       0.274400
     10 O4          -0.5820     0.8090     1.4240 oh         1 A9S      -0.655000
     11 C6          -1.7160     0.7950    -0.7970 c6         1 A9S      -0.013000
     12 C14         -2.0520    -0.0450    -2.1030 c3         1 A9S      -0.080600
     13 C13         -0.8330     1.9910    -1.2870 c3         1 A9S      -0.080600
     14 C1          -3.0430     1.3650    -0.2250 c6         1 A9S      -0.176400
     15 C4          -1.9430    -1.0830     0.9910 c2         1 A9S      -0.053400
     16 C7          -1.3080    -2.2930     1.6630 c3         1 A9S      -0.065900
     17 C3          -3.2810    -0.8930     0.9830 ce         1 A9S      -0.325200
     18 C2          -3.9410     0.2690     0.3420 c          1 A9S       0.585300
     19 O2          -5.1590     0.3370     0.2520 o          1 A9S      -0.561100
     20 H2           4.8240    -0.9670    -0.9670 ha         1 A9S       0.147000
     21 H3           2.2380    -2.8350    -1.3780 hc         1 A9S       0.018367
     22 H4           1.7110    -1.5850    -2.5210 hc         1 A9S       0.018367
     23 H5           3.4080    -2.0410    -2.4360 hc         1 A9S       0.018367
     24 H6           1.6530     0.7920     0.2670 ha         1 A9S       0.229000
     25 H7           0.1590    -1.7200    -0.6920 ha         1 A9S       0.163000
     26 H8          -0.0830     0.2340     2.0390 ho         1 A9S       0.457000
     27 H9          -2.6520    -0.9330    -1.8710 hc         1 A9S       0.037533
     28 H10         -2.6150     0.5500    -2.8310 hc         1 A9S       0.037533
     29 H11         -1.1400    -0.3930    -2.6020 hc         1 A9S       0.037533
     30 H12          0.1000     1.6460    -1.7470 hc         1 A9S       0.037533
     31 H13         -1.3590     2.5920    -2.0390 hc         1 A9S       0.037533
     32 H14         -0.5670     2.6680    -0.4670 hc         1 A9S       0.037533
     33 H15         -2.7880     2.0120     0.6230 hc         1 A9S       0.070200
     34 H16         -3.6050     1.9760    -0.9440 hc         1 A9S       0.070200
     35 H17         -0.4580    -2.0050     2.2930 hc         1 A9S       0.048367
     36 H18         -2.0250    -2.8160     2.3070 hc         1 A9S       0.048367
     37 H19         -0.9500    -3.0190     0.9240 hc         1 A9S       0.048367
     38 H20         -3.9510    -1.6230     1.4270 ha         1 A9S       0.182000
@<TRIPOS>BOND
     1     1     2 1   
     2     2     3 1   
     3     2     4 1   
     4     4     5 2   
     5     4    20 1   
     6     5     6 1   
     7     5     7 1   
     8     6    21 1   
     9     6    22 1   
    10     6    23 1   
    11     7     8 2   
    12     7    24 1   
    13     8     9 1   
    14     8    25 1   
    15     9    10 1   
    16     9    11 1   
    17     9    15 1   
    18    10    26 1   
    19    11    12 1   
    20    11    13 1   
    21    11    14 1   
    22    12    27 1   
    23    12    28 1   
    24    12    29 1   
    25    13    30 1   
    26    13    31 1   
    27    13    32 1   
    28    14    18 1   
    29    14    33 1   
    30    14    34 1   
    31    15    16 1   
    32    15    17 2   
    33    16    35 1   
    34    16    36 1   
    35    16    37 1   
    36    17    18 1   
    37    17    38 1   
    38    18    19 2   
@<TRIPOS>SUBSTRUCTURE
     1 A9S         1 TEMP              0 ****  ****    0 ROOT
