@<TRIPOS>MOLECULE
A9S
   38    38     1     0     0
SMALL
abcg2


@<TRIPOS>ATOM
      1 O3           3.7460     1.2280     1.1390 o          1 A9S      -0.720500
      2 C10          4.5160     0.5080     0.4690 c          1 A9S       0.694200
      3 O1           5.7640     0.5720     0.4750 o          1 A9S      -0.720500
      4 C11          3.9550    -0.5530    -0.4490 ce         1 A9S      -0.198200
      5 C12          2.6810    -0.9070    -0.7070 cf         1 A9S      -0.164200
      6 C15          2.4150    -2.0170    -1.6860 c3         1 A9S      -0.044900
      7 C8           1.5220    -0.2630    -0.0900 cf         1 A9S      -0.079000
      8 C9           0.2580    -0.6210    -0.3340 c2         1 A9S      -0.358200
      9 C5          -0.9560     0.0260     0.2790 c6         1 A9S       0.274400
     10 O4          -0.6180     0.9210     1.3180 oh         1 A9S      -0.655000
     11 C6          -1.7230     0.8490    -0.7960 c6         1 A9S      -0.013000
     12 C14         -1.9670     0.0130    -2.0580 c3         1 A9S      -0.080600
     13 C13         -0.9330     2.0950    -1.1960 c3         1 A9S      -0.080600
     14 C1          -3.0740     1.2890    -0.2210 c6         1 A9S      -0.176400
     15 C4          -1.8490    -1.0580     0.8970 c2         1 A9S      -0.053400
     16 C7          -1.1610    -2.1860     1.5950 c3         1 A9S      -0.065900
     17 C3          -3.1860    -0.9690     0.8870 ce         1 A9S      -0.325200
     18 C2          -3.9100     0.1470     0.2790 c          1 A9S       0.585300
     19 O2          -5.1280     0.1590     0.2320 o          1 A9S      -0.561100
     20 H2           4.7210    -1.1120    -0.9800 ha         1 A9S       0.147000
     21 H3           1.8630    -2.8380    -1.2220 hc         1 A9S       0.018367
     22 H4           1.8140    -1.6700    -2.5290 hc         1 A9S       0.018367
     23 H5           3.3430    -2.4250    -2.0840 hc         1 A9S       0.018367
     24 H6           1.7390     0.5480     0.5900 ha         1 A9S       0.229000
     25 H7           0.0410    -1.4340    -1.0190 ha         1 A9S       0.163000
     26 H8          -0.0800     0.4570     1.9700 ho         1 A9S       0.457000
     27 H9          -2.4220    -0.9570    -1.8490 hc         1 A9S       0.037533
     28 H10         -2.6380     0.5520    -2.7290 hc         1 A9S       0.037533
     29 H11         -1.0410    -0.1680    -2.6050 hc         1 A9S       0.037533
     30 H12          0.0660     1.8380    -1.5500 hc         1 A9S       0.037533
     31 H13         -1.4490     2.6080    -2.0100 hc         1 A9S       0.037533
     32 H14         -0.8300     2.8050    -0.3760 hc         1 A9S       0.037533
     33 H15         -2.9180     1.9670     0.6260 hc         1 A9S       0.070200
     34 H16         -3.6380     1.8520    -0.9700 hc         1 A9S       0.070200
     35 H17         -0.4100    -1.8150     2.2960 hc         1 A9S       0.048367
     36 H18         -1.8660    -2.8020     2.1490 hc         1 A9S       0.048367
     37 H19         -0.6280    -2.8260     0.8890 hc         1 A9S       0.048367
     38 H20         -3.7850    -1.7390     1.3620 ha         1 A9S       0.182000
@<TRIPOS>BOND
     1     1     2 1   
     2     2     3 1   
     3     2     4 1   
     4     4     5 2   
     5     4    20 1   
     6     5     6 1   
     7     5     7 1   
     8     6    21 1   
     9     6    22 1   
    10     6    23 1   
    11     7     8 2   
    12     7    24 1   
    13     8     9 1   
    14     8    25 1   
    15     9    10 1   
    16     9    11 1   
    17     9    15 1   
    18    10    26 1   
    19    11    12 1   
    20    11    13 1   
    21    11    14 1   
    22    12    27 1   
    23    12    28 1   
    24    12    29 1   
    25    13    30 1   
    26    13    31 1   
    27    13    32 1   
    28    14    18 1   
    29    14    33 1   
    30    14    34 1   
    31    15    16 1   
    32    15    17 2   
    33    16    35 1   
    34    16    36 1   
    35    16    37 1   
    36    17    18 1   
    37    17    38 1   
    38    18    19 2   
@<TRIPOS>SUBSTRUCTURE
     1 A9S         1 TEMP              0 ****  ****    0 ROOT
