@<TRIPOS>MOLECULE
A9T
   61    65     1     0     0
SMALL
bcc


@<TRIPOS>ATOM
      1 C1         -10.3050     1.5750    -0.4680 c          1 A9T       0.685700
      2 N1         -11.3150     1.7140     0.4070 nt         1 A9T      -0.671000
      3 O1           0.6760    -1.3460    -0.7130 os         1 A9T      -0.318900
      4 C2          -9.0870     0.8610     0.0220 ca         1 A9T      -0.182600
      5 C3          -7.9070     1.0550    -0.6840 ca         1 A9T      -0.004000
      6 N3          -5.4810     0.4390    -0.7430 nc         1 A9T      -0.567100
      7 C4          -6.7580     0.4080    -0.2440 ca         1 A9T       0.060400
      8 N4          -5.5390    -0.8920     1.0330 na         1 A9T      -0.260300
      9 C5          -4.7820    -0.3440     0.0380 cd         1 A9T       0.483400
     10 C6          -6.8140    -0.4320     0.8830 ca         1 A9T      -0.064200
     11 C7          -7.9900    -0.6560     1.5860 ca         1 A9T      -0.143000
     12 C8          -9.1190     0.0040     1.1390 ca         1 A9T      -0.090000
     13 C9          -3.3580    -0.6160    -0.1130 ca         1 A9T      -0.160900
     14 C10         -2.7040    -0.2520    -1.2940 ca         1 A9T      -0.059500
     15 C11         -1.3600    -0.5020    -1.4670 ca         1 A9T      -0.199000
     16 C12         -0.6200    -1.1250    -0.4560 ca         1 A9T       0.166100
     17 C13         -1.2580    -1.4770     0.7330 ca         1 A9T      -0.199000
     18 C14         -2.6110    -1.2240     0.8920 ca         1 A9T      -0.059500
     19 C20          5.1650    -3.0340     0.3280 c6         1 A9T       0.166300
     20 C19          3.7330    -2.8400     0.8230 c6         1 A9T      -0.108900
     21 C18          2.8810    -2.1600    -0.2510 c6         1 A9T      -0.063700
     22 C17          3.5600    -0.8730    -0.7170 c6         1 A9T      -0.108900
     23 C16          5.0090    -1.1450    -1.1270 c6         1 A9T       0.166300
     24 NBG          5.8060    -1.8030    -0.1030 n3         1 A9T      -0.720600
     25 CAS          1.4840    -1.9420     0.2920 c3         1 A9T       0.143400
     26 OAB        -10.3700     2.0070    -1.6120 o          1 A9T      -0.606100
     27 C22          7.1790     0.1110     0.5680 ca         1 A9T      -0.085300
     28 C23          6.9980     1.4530     0.8780 ca         1 A9T      -0.108000
     29 C24          7.9360     2.4120     0.5130 ca         1 A9T      -0.125000
     30 C25          9.0670     2.0130    -0.1770 ca         1 A9T       0.029400
     31 C26          9.2720     0.6800    -0.5050 ca         1 A9T      -0.125000
     32 CL1         10.2470     3.1980    -0.6440 cl         1 A9T      -0.116400
     33 C21          6.1780    -0.9300     0.9950 c3         1 A9T       0.215100
     34 C27          8.3250    -0.2600    -0.1320 ca         1 A9T      -0.108000
     35 H23          6.1080     1.7670     1.4110 ha         1 A9T       0.140000
     36 H24          7.7770     3.4530     0.7590 ha         1 A9T       0.147000
     37 H26         10.1600     0.3780    -1.0440 ha         1 A9T       0.147000
     38 H21          5.3260    -0.4270     1.4780 h1         1 A9T       0.039200
     39 H22          6.6330    -1.5540     1.7710 h1         1 A9T       0.039200
     40 H27          8.4790    -1.2990    -0.3930 ha         1 A9T       0.140000
     41 H11N       -11.2140     1.5210     1.3880 hn         1 A9T       0.310500
     42 H12N       -12.1340     2.2330     0.1330 hn         1 A9T       0.310500
     43 HAS1         1.5180    -1.2920     1.1760 h1         1 A9T       0.036200
     44 HAS2         1.0560    -2.9030     0.6010 h1         1 A9T       0.036200
     45 H3          -7.8750     1.7020    -1.5500 ha         1 A9T       0.171000
     46 H8         -10.0490    -0.1770     1.6610 ha         1 A9T       0.128000
     47 H4          -5.2300    -1.5520     1.7290 hn         1 A9T       0.306700
     48 H7          -8.0290    -1.3180     2.4400 ha         1 A9T       0.137000
     49 H10         -3.2620     0.2260    -2.0890 ha         1 A9T       0.141000
     50 H14         -3.0660    -1.5060     1.8330 ha         1 A9T       0.141000
     51 H11         -0.8690    -0.2200    -2.3890 ha         1 A9T       0.144000
     52 H13         -0.7230    -1.9480     1.5460 ha         1 A9T       0.144000
     53 H161         5.0080    -1.7870    -2.0150 h1         1 A9T       0.055950
     54 H162         5.5010    -0.2140    -1.4170 h1         1 A9T       0.055950
     55 H171         3.0280    -0.4390    -1.5660 hc         1 A9T       0.048200
     56 H172         3.5220    -0.1270     0.0860 hc         1 A9T       0.048200
     57 H18          2.8140    -2.8450    -1.1070 hc         1 A9T       0.063700
     58 H191         3.3040    -3.8090     1.0920 hc         1 A9T       0.048200
     59 H192         3.7320    -2.2320     1.7340 hc         1 A9T       0.048200
     60 H201         5.7770    -3.5000     1.1030 h1         1 A9T       0.055950
     61 H202         5.1550    -3.7230    -0.5230 h1         1 A9T       0.055950
@<TRIPOS>BOND
     1     1     2 1   
     2     1     4 1   
     3     1    26 2   
     4     2    41 1   
     5     2    42 1   
     6     3    16 1   
     7     3    25 1   
     8     4     5 ar  
     9     4    12 ar  
    10     5     7 ar  
    11     5    45 1   
    12     6     7 1   
    13     6     9 2   
    14     7    10 ar  
    15     8     9 1   
    16     8    10 1   
    17     8    47 1   
    18     9    13 1   
    19    10    11 ar  
    20    11    12 ar  
    21    11    48 1   
    22    12    46 1   
    23    13    14 ar  
    24    13    18 ar  
    25    14    15 ar  
    26    14    49 1   
    27    15    16 ar  
    28    15    51 1   
    29    16    17 ar  
    30    17    18 ar  
    31    17    52 1   
    32    18    50 1   
    33    19    20 1   
    34    19    24 1   
    35    19    60 1   
    36    19    61 1   
    37    20    21 1   
    38    20    58 1   
    39    20    59 1   
    40    21    22 1   
    41    21    25 1   
    42    21    57 1   
    43    22    23 1   
    44    22    55 1   
    45    22    56 1   
    46    23    24 1   
    47    23    53 1   
    48    23    54 1   
    49    24    33 1   
    50    25    43 1   
    51    25    44 1   
    52    27    28 ar  
    53    27    33 1   
    54    27    34 ar  
    55    28    29 ar  
    56    28    35 1   
    57    29    30 ar  
    58    29    36 1   
    59    30    31 ar  
    60    30    32 1   
    61    31    34 ar  
    62    31    37 1   
    63    33    38 1   
    64    33    39 1   
    65    34    40 1   
@<TRIPOS>SUBSTRUCTURE
     1 A9T         1 TEMP              0 ****  ****    0 ROOT
