@<TRIPOS>MOLECULE
A9T
   61    65     1     0     0
SMALL
No Charge or Current Charge


@<TRIPOS>ATOM
      1 C1         -10.3460     1.6170    -0.5680 c          1 A9T       0.618700
      2 N1         -11.4560     1.6550     0.2000 nt         1 A9T      -0.604000
      3 O1           0.7260    -1.5730    -0.7290 os         1 A9T      -0.342100
      4 C2          -9.0880     1.0270     0.0210 ca         1 A9T      -0.182600
      5 C3          -7.9120     0.9800    -0.7730 ca         1 A9T       0.014000
      6 N3          -5.5030     0.2960    -0.8380 nc         1 A9T      -0.567100
      7 C4          -6.7390     0.4320    -0.2320 ca         1 A9T       0.060400
      8 N4          -5.4710    -0.5200     1.3130 na         1 A9T      -0.310600
      9 C5          -4.7580    -0.2850     0.1270 cd         1 A9T       0.483400
     10 C6          -6.7230    -0.0510     1.0410 ca         1 A9T      -0.064200
     11 C7          -7.8500    -0.0300     1.8690 ca         1 A9T      -0.125000
     12 C8          -9.0430     0.5140     1.3500 ca         1 A9T      -0.072000
     13 C9          -3.3310    -0.6260    -0.0800 ca         1 A9T      -0.160900
     14 C10         -2.6930    -0.3500    -1.3120 ca         1 A9T      -0.041500
     15 C11         -1.3390    -0.6750    -1.5040 ca         1 A9T      -0.181000
     16 C12         -0.5980    -1.2780    -0.4800 ca         1 A9T       0.166100
     17 C13         -1.2220    -1.5580     0.7530 ca         1 A9T      -0.181000
     18 C14         -2.5770    -1.2340     0.9490 ca         1 A9T      -0.041500
     19 C20          5.3560    -3.2970     0.0720 c6         1 A9T       0.166300
     20 C19          3.9180    -3.1600     0.6400 c6         1 A9T      -0.108900
     21 C18          3.0000    -2.3710    -0.3340 c6         1 A9T      -0.063700
     22 C17          3.6680    -1.0170    -0.7130 c6         1 A9T      -0.108900
     23 C16          5.1120    -1.2340    -1.2340 c6         1 A9T       0.166300
     24 NBG          5.9580    -1.9730    -0.2510 n3         1 A9T      -0.720600
     25 CAS          1.5740    -2.1850     0.2580 c3         1 A9T       0.166600
     26 OAB        -10.3960     2.0590    -1.7040 o          1 A9T      -0.606100
     27 C22          7.1260     0.0810     0.6180 ca         1 A9T      -0.085300
     28 C23          6.5490     1.3520     0.8110 ca         1 A9T      -0.090000
     29 C24          7.2760     2.5150     0.4990 ca         1 A9T      -0.107000
     30 C25          8.5830     2.4110    -0.0060 ca         1 A9T       0.121000
     31 C26          9.1640     1.1480    -0.2010 ca         1 A9T      -0.107000
     32 Cl1          9.4910     3.8650    -0.3960 cl         1 A9T      -0.208000
     33 C21          6.3390    -1.1840     0.9500 c3         1 A9T       0.215100
     34 C27          8.4370    -0.0150     0.1100 ca         1 A9T      -0.090000
     35 H23          5.5360     1.4400     1.1990 ha         1 A9T       0.122000
     36 H24          6.8290     3.4940     0.6480 ha         1 A9T       0.129000
     37 H26         10.1750     1.0700    -0.5930 ha         1 A9T       0.129000
     38 H21          5.4510    -0.9080     1.5330 h1         1 A9T       0.039200
     39 H22          6.9640    -1.8020     1.6100 h1         1 A9T       0.039200
     40 H27          8.8880    -0.9930    -0.0460 ha         1 A9T       0.122000
     41 H11N       -11.4340     1.2950     1.1410 hn         1 A9T       0.310500
     42 H12N       -12.3030     2.0470    -0.1810 hn         1 A9T       0.310500
     43 HAS1         1.6380    -1.5590     1.1580 h1         1 A9T       0.036200
     44 HAS2         1.1780    -3.1680     0.5440 h1         1 A9T       0.036200
     45 H3          -7.9050     1.3600    -1.7920 ha         1 A9T       0.153000
     46 H8          -9.9210     0.5320     1.9900 ha         1 A9T       0.110000
     47 H4          -5.1230    -0.9410     2.1630 hn         1 A9T       0.357000
     48 H7          -7.8100    -0.4230     2.8830 ha         1 A9T       0.119000
     49 H10         -3.2400     0.1180    -2.1270 ha         1 A9T       0.123000
     50 H14         -3.0300    -1.4630     1.9100 ha         1 A9T       0.123000
     51 H11         -0.8620    -0.4570    -2.4560 ha         1 A9T       0.126000
     52 H13         -0.6770    -2.0250     1.5670 ha         1 A9T       0.126000
     53 H161         5.0600    -1.8010    -2.1760 h1         1 A9T       0.055950
     54 H162         5.5580    -0.2600    -1.4870 h1         1 A9T       0.055950
     55 H171         3.0790    -0.5110    -1.4890 hc         1 A9T       0.048200
     56 H172         3.6770    -0.3420     0.1540 hc         1 A9T       0.048200
     57 H18          2.8780    -2.9680    -1.2480 hc         1 A9T       0.063700
     58 H191         3.5020    -4.1610     0.8160 hc         1 A9T       0.048200
     59 H192         3.9470    -2.6650     1.6200 hc         1 A9T       0.048200
     60 H201         5.9830    -3.8410     0.7950 h1         1 A9T       0.055950
     61 H202         5.3160    -3.9180    -0.8350 h1         1 A9T       0.055950
@<TRIPOS>BOND
     1     1     2 1   
     2     1     4 1   
     3     1    26 2   
     4     2    41 1   
     5     2    42 1   
     6     3    16 1   
     7     3    25 1   
     8     4     5 ar  
     9     4    12 ar  
    10     5     7 ar  
    11     5    45 1   
    12     6     7 1   
    13     6     9 2   
    14     7    10 ar  
    15     8     9 1   
    16     8    10 1   
    17     8    47 1   
    18     9    13 1   
    19    10    11 ar  
    20    11    12 ar  
    21    11    48 1   
    22    12    46 1   
    23    13    14 ar  
    24    13    18 ar  
    25    14    15 ar  
    26    14    49 1   
    27    15    16 ar  
    28    15    51 1   
    29    16    17 ar  
    30    17    18 ar  
    31    17    52 1   
    32    18    50 1   
    33    19    20 1   
    34    19    24 1   
    35    19    60 1   
    36    19    61 1   
    37    20    21 1   
    38    20    58 1   
    39    20    59 1   
    40    21    22 1   
    41    21    25 1   
    42    21    57 1   
    43    22    23 1   
    44    22    55 1   
    45    22    56 1   
    46    23    24 1   
    47    23    53 1   
    48    23    54 1   
    49    24    33 1   
    50    25    43 1   
    51    25    44 1   
    52    27    28 ar  
    53    27    33 1   
    54    27    34 ar  
    55    28    29 ar  
    56    28    35 1   
    57    29    30 ar  
    58    29    36 1   
    59    30    31 ar  
    60    30    32 1   
    61    31    34 ar  
    62    31    37 1   
    63    33    38 1   
    64    33    39 1   
    65    34    40 1   
@<TRIPOS>SUBSTRUCTURE
     1 A9T         1 TEMP              0 ****  ****    0 ROOT
