@<TRIPOS>MOLECULE
A9U
   61    65     1     0     0
SMALL
abcg2


@<TRIPOS>ATOM
      1 C1          -9.7040    -0.6210    -0.9460 c          1 A9U       0.620700
      2 N1         -10.8230    -0.8270    -0.2350 nt         1 A9U      -0.604000
      3 O1           1.5000     1.1420     0.5110 os         1 A9U      -0.343100
      4 C2          -8.4300    -0.4260    -0.1860 ca         1 A9U      -0.143600
      5 C3          -7.2700    -0.2770    -0.9390 ca         1 A9U      -0.048000
      6 N3          -4.7920     0.0890    -0.6660 na         1 A9U      -0.305600
      7 C4          -6.0840    -0.0930    -0.2520 ca         1 A9U      -0.099200
      8 N4          -4.7240     0.1500     1.5520 nc         1 A9U      -0.586100
      9 C5          -4.0210     0.2310     0.4460 cd         1 A9U       0.495400
     10 C6          -6.0140    -0.0500     1.1510 ca         1 A9U       0.097400
     11 C7          -7.1820    -0.1990     1.8990 ca         1 A9U      -0.064000
     12 C8          -8.3700    -0.3830     1.2210 ca         1 A9U      -0.110000
     13 C9          -2.5820     0.4560     0.4060 ca         1 A9U      -0.164900
     14 C10         -1.8770     0.5820     1.6080 ca         1 A9U      -0.039500
     15 C11         -0.5190     0.8070     1.6140 ca         1 A9U      -0.182500
     16 C12          0.1850     0.9150     0.4090 ca         1 A9U       0.168100
     17 C13         -0.5030     0.7860    -0.7960 ca         1 A9U      -0.182500
     18 C14         -1.8710     0.5590    -0.7870 ca         1 A9U      -0.039500
     19 C20          6.0050     2.1460    -1.1290 c6         1 A9U       0.166300
     20 C19          4.5440     1.9060    -1.5120 c6         1 A9U      -0.108900
     21 C18          3.7050     1.6090    -0.2680 c6         1 A9U      -0.063700
     22 C17          4.3450     0.4710     0.5260 c6         1 A9U      -0.108900
     23 C16          5.8120     0.7840     0.8220 c6         1 A9U       0.166300
     24 NBH          6.6050     1.0660    -0.3640 n3         1 A9U      -0.719600
     25 CAS          2.2730     1.3170    -0.6690 c3         1 A9U       0.167600
     26 OAB         -9.7150    -0.5900    -2.1720 o          1 A9U      -0.617100
     27 C22          7.8320    -1.0610    -0.4540 ca         1 A9U      -0.087300
     28 C23          7.5800    -2.4280    -0.4490 ca         1 A9U      -0.098500
     29 C24          8.4580    -3.3140     0.1660 ca         1 A9U      -0.114500
     30 C25          9.6000    -2.8370     0.7920 ca         1 A9U      -0.109000
     31 C26          9.8570    -1.4700     0.7990 ca         1 A9U      -0.114500
     32 C21          6.9020    -0.1090    -1.1620 c3         1 A9U       0.215100
     33 C27          8.9800    -0.5910     0.1820 ca         1 A9U      -0.098500
     34 H25         10.2860    -3.5220     1.2740 ha         1 A9U       0.111000
     35 H23          6.6850    -2.8070    -0.9290 ha         1 A9U       0.116000
     36 H24          8.2430    -4.3750     0.1610 ha         1 A9U       0.111500
     37 H26         10.7460    -1.0900     1.2870 ha         1 A9U       0.111500
     38 H21          6.0100    -0.6640    -1.4900 h1         1 A9U       0.037200
     39 H22          7.3900     0.2350    -2.0800 h1         1 A9U       0.037200
     40 H27          9.1790     0.4740     0.1990 ha         1 A9U       0.116000
     41 H11N       -10.8470    -0.8870     0.7660 hn         1 A9U       0.314500
     42 H12N       -11.6960    -0.9630    -0.7180 hn         1 A9U       0.314500
     43 HAS1         2.2300     0.4130    -1.2900 h1         1 A9U       0.037200
     44 HAS2         1.8710     2.1490    -1.2590 h1         1 A9U       0.037200
     45 H3          -7.3010    -0.3040    -2.0200 ha         1 A9U       0.143000
     46 H8          -9.2650    -0.4880     1.8190 ha         1 A9U       0.105000
     47 HA          -4.4840     0.1180    -1.6240 hn         1 A9U       0.359000
     48 H7          -7.1600    -0.1670     2.9800 ha         1 A9U       0.131000
     49 H10         -2.4080     0.5040     2.5470 ha         1 A9U       0.123000
     50 H14         -2.3670     0.4660    -1.7450 ha         1 A9U       0.123000
     51 H11          0.0130     0.9090     2.5510 ha         1 A9U       0.126500
     52 H13          0.0040     0.8610    -1.7470 ha         1 A9U       0.126500
     53 H161         5.8630     1.6630     1.4730 h1         1 A9U       0.055450
     54 H162         6.2720    -0.0370     1.3760 h1         1 A9U       0.055450
     55 H171         3.8170     0.3040     1.4680 hc         1 A9U       0.047950
     56 H172         4.2700    -0.4630    -0.0440 hc         1 A9U       0.047950
     57 H18          3.7050     2.5110     0.3580 hc         1 A9U       0.063700
     58 H191         4.1590     2.7920    -2.0260 hc         1 A9U       0.047950
     59 H192         4.4650     1.0760    -2.2230 hc         1 A9U       0.047950
     60 H201         6.6060     2.3260    -2.0230 h1         1 A9U       0.055450
     61 H202         6.0590     3.0570    -0.5220 h1         1 A9U       0.055450
@<TRIPOS>BOND
     1     1     2 1   
     2     1     4 1   
     3     1    26 2   
     4     2    41 1   
     5     2    42 1   
     6     3    16 1   
     7     3    25 1   
     8     4     5 ar  
     9     4    12 ar  
    10     5     7 ar  
    11     5    45 1   
    12     6     7 1   
    13     6     9 1   
    14     6    47 1   
    15     7    10 ar  
    16     8     9 2   
    17     8    10 1   
    18     9    13 1   
    19    10    11 ar  
    20    11    12 ar  
    21    11    48 1   
    22    12    46 1   
    23    13    14 ar  
    24    13    18 ar  
    25    14    15 ar  
    26    14    49 1   
    27    15    16 ar  
    28    15    51 1   
    29    16    17 ar  
    30    17    18 ar  
    31    17    52 1   
    32    18    50 1   
    33    19    20 1   
    34    19    24 1   
    35    19    60 1   
    36    19    61 1   
    37    20    21 1   
    38    20    58 1   
    39    20    59 1   
    40    21    22 1   
    41    21    25 1   
    42    21    57 1   
    43    22    23 1   
    44    22    55 1   
    45    22    56 1   
    46    23    24 1   
    47    23    53 1   
    48    23    54 1   
    49    24    32 1   
    50    25    43 1   
    51    25    44 1   
    52    27    28 ar  
    53    27    32 1   
    54    27    33 ar  
    55    28    29 ar  
    56    28    35 1   
    57    29    30 ar  
    58    29    36 1   
    59    30    31 ar  
    60    30    34 1   
    61    31    33 ar  
    62    31    37 1   
    63    32    38 1   
    64    32    39 1   
    65    33    40 1   
@<TRIPOS>SUBSTRUCTURE
     1 A9U         1 TEMP              0 ****  ****    0 ROOT
