@<TRIPOS>MOLECULE
A9U
   61    65     1     0     0
SMALL
No Charge or Current Charge


@<TRIPOS>ATOM
      1 C1          -9.7320    -0.8840    -0.9530 c          1 A9U       0.620700
      2 N1         -10.8520    -1.1080    -0.2340 nt         1 A9U      -0.604000
      3 O1           1.5630     1.3630     0.4850 os         1 A9U      -0.343100
      4 C2          -8.4400    -0.6280    -0.2070 ca         1 A9U      -0.143600
      5 C3          -7.2500    -0.3900    -0.9410 ca         1 A9U      -0.048000
      6 N3          -4.8110     0.0950    -0.7210 na         1 A9U      -0.305600
      7 C4          -6.0640    -0.1550    -0.2340 ca         1 A9U      -0.099200
      8 N4          -4.7250     0.1090     1.5780 nc         1 A9U      -0.586100
      9 C5          -4.0250     0.2500     0.4320 cd         1 A9U       0.495400
     10 C6          -6.0060    -0.1450     1.1260 ca         1 A9U       0.097400
     11 C7          -7.1590    -0.3760     1.8870 ca         1 A9U      -0.064000
     12 C8          -8.3780    -0.6180     1.2180 ca         1 A9U      -0.110000
     13 C9          -2.5720     0.5390     0.4290 ca         1 A9U      -0.164900
     14 C10         -1.8600     0.6790     1.6430 ca         1 A9U      -0.039500
     15 C11         -0.4820     0.9540     1.6360 ca         1 A9U      -0.182500
     16 C12          0.2110     1.0940     0.4270 ca         1 A9U       0.168100
     17 C13         -0.4870     0.9570    -0.7900 ca         1 A9U      -0.182500
     18 C14         -1.8660     0.6820    -0.7870 ca         1 A9U      -0.039500
     19 C20          6.2000     2.3510    -1.1190 c6         1 A9U       0.166300
     20 C19          4.7200     2.1210    -1.5250 c6         1 A9U      -0.108900
     21 C18          3.8380     1.8010    -0.2870 c6         1 A9U      -0.063700
     22 C17          4.4650     0.6310     0.5240 c6         1 A9U      -0.108900
     23 C16          5.9530     0.9170     0.8590 c6         1 A9U       0.166300
     24 NBH          6.7600     1.1930    -0.3660 n3         1 A9U      -0.719600
     25 CAS          2.3650     1.5180    -0.6980 c3         1 A9U       0.167600
     26 OAB         -9.8000    -0.8960    -2.1710 o          1 A9U      -0.617100
     27 C22          7.7630    -1.1160    -0.4910 ca         1 A9U      -0.087300
     28 C23          7.1080    -2.3210    -0.1660 ca         1 A9U      -0.098500
     29 C24          7.8000    -3.3460     0.5040 ca         1 A9U      -0.114500
     30 C25          9.1500    -3.1720     0.8530 ca         1 A9U      -0.109000
     31 C26          9.8090    -1.9730     0.5310 ca         1 A9U      -0.114500
     32 C21          7.0160    -0.0000    -1.2170 c3         1 A9U       0.215100
     33 C27          9.1170    -0.9480    -0.1380 ca         1 A9U      -0.098500
     34 H25          9.6850    -3.9650     1.3710 ha         1 A9U       0.111000
     35 H23          6.0630    -2.4630    -0.4300 ha         1 A9U       0.116000
     36 H24          7.2890    -4.2730     0.7530 ha         1 A9U       0.111500
     37 H26         10.8530    -1.8370     0.8020 ha         1 A9U       0.111500
     38 H21          6.0750    -0.4040    -1.6150 h1         1 A9U       0.037200
     39 H22          7.6200     0.2940    -2.0860 h1         1 A9U       0.037200
     40 H27          9.6300    -0.0200    -0.3810 ha         1 A9U       0.116000
     41 H11N       -10.8180    -1.1020     0.7730 hn         1 A9U       0.314500
     42 H12N       -11.7210    -1.2800    -0.7180 hn         1 A9U       0.314500
     43 HAS1         2.3340     0.6070    -1.3120 h1         1 A9U       0.037200
     44 HAS2         1.9970     2.3580    -1.3020 h1         1 A9U       0.037200
     45 H3          -7.2510    -0.3890    -2.0290 ha         1 A9U       0.143000
     46 H8          -9.2660    -0.7950     1.8180 ha         1 A9U       0.105000
     47 HA          -4.5040     0.1580    -1.6820 hn         1 A9U       0.359000
     48 H7          -7.1120    -0.3680     2.9730 ha         1 A9U       0.131000
     49 H10         -2.3690     0.5760     2.5990 ha         1 A9U       0.123000
     50 H14         -2.3770     0.5820    -1.7420 ha         1 A9U       0.123000
     51 H11          0.0520     1.0590     2.5760 ha         1 A9U       0.126500
     52 H13          0.0200     1.0590    -1.7450 ha         1 A9U       0.126500
     53 H161         5.9960     1.7870     1.5320 h1         1 A9U       0.055450
     54 H162         6.3680     0.0700     1.4240 h1         1 A9U       0.055450
     55 H171         3.9110     0.4800     1.4600 hc         1 A9U       0.047950
     56 H172         4.3790    -0.3090    -0.0370 hc         1 A9U       0.047950
     57 H18          3.8110     2.6950     0.3540 hc         1 A9U       0.063700
     58 H191         4.3410     3.0190    -2.0310 hc         1 A9U       0.047950
     59 H192         4.6540     1.3060    -2.2580 hc         1 A9U       0.047950
     60 H201         6.7980     2.5530    -2.0200 h1         1 A9U       0.055450
     61 H202         6.2550     3.2580    -0.4980 h1         1 A9U       0.055450
@<TRIPOS>BOND
     1     1     2 1   
     2     1     4 1   
     3     1    26 2   
     4     2    41 1   
     5     2    42 1   
     6     3    16 1   
     7     3    25 1   
     8     4     5 ar  
     9     4    12 ar  
    10     5     7 ar  
    11     5    45 1   
    12     6     7 1   
    13     6     9 1   
    14     6    47 1   
    15     7    10 ar  
    16     8     9 2   
    17     8    10 1   
    18     9    13 1   
    19    10    11 ar  
    20    11    12 ar  
    21    11    48 1   
    22    12    46 1   
    23    13    14 ar  
    24    13    18 ar  
    25    14    15 ar  
    26    14    49 1   
    27    15    16 ar  
    28    15    51 1   
    29    16    17 ar  
    30    17    18 ar  
    31    17    52 1   
    32    18    50 1   
    33    19    20 1   
    34    19    24 1   
    35    19    60 1   
    36    19    61 1   
    37    20    21 1   
    38    20    58 1   
    39    20    59 1   
    40    21    22 1   
    41    21    25 1   
    42    21    57 1   
    43    22    23 1   
    44    22    55 1   
    45    22    56 1   
    46    23    24 1   
    47    23    53 1   
    48    23    54 1   
    49    24    32 1   
    50    25    43 1   
    51    25    44 1   
    52    27    28 ar  
    53    27    32 1   
    54    27    33 ar  
    55    28    29 ar  
    56    28    35 1   
    57    29    30 ar  
    58    29    36 1   
    59    30    31 ar  
    60    30    34 1   
    61    31    33 ar  
    62    31    37 1   
    63    32    38 1   
    64    32    39 1   
    65    33    40 1   
@<TRIPOS>SUBSTRUCTURE
     1 A9U         1 TEMP              0 ****  ****    0 ROOT
