@<TRIPOS>MOLECULE
A9V
   43    44     1     0     0
SMALL
abcg2


@<TRIPOS>ATOM
      1 O1          -4.6730    -1.0100     1.0810 oh         1 A9V      -0.651000
      2 C2          -3.6280    -0.1370     0.7170 c3         1 A9V       0.215600
      3 C1          -4.0750     0.9140    -0.2980 c3         1 A9V      -0.118400
      4 C           -5.2150     1.7760     0.2120 c3         1 A9V       0.164600
      5 O           -5.5060     2.7550    -0.7630 oh         1 A9V      -0.663000
      6 C3          -2.4030    -0.8720     0.2090 ca         1 A9V      -0.073300
      7 C15         -1.1510    -0.3170     0.4210 ca         1 A9V      -0.143000
      8 C7           0.0040    -0.9370    -0.0580 ca         1 A9V       0.150100
      9 C6          -0.1030    -2.1360    -0.7600 ca         1 A9V      -0.197000
     10 C5          -1.3610    -2.6870    -0.9680 ca         1 A9V      -0.071000
     11 C4          -2.5080    -2.0720    -0.4910 ca         1 A9V      -0.137000
     12 O2           1.1660    -0.3130     0.2110 os         1 A9V      -0.349100
     13 C8           2.3840    -0.9270    -0.1790 c3         1 A9V       0.167600
     14 C9           3.5400    -0.0510     0.2680 c6         1 A9V      -0.064700
     15 C14          4.8610    -0.7700    -0.0110 c6         1 A9V      -0.070400
     16 C13          6.0610     0.0730     0.4060 c6         1 A9V      -0.072900
     17 C12          6.0390     1.4440    -0.2620 c6         1 A9V      -0.075400
     18 C11          4.7250     2.1670     0.0080 c6         1 A9V      -0.072900
     19 C10          3.5230     1.3220    -0.4060 c6         1 A9V      -0.070400
     20 H1          -5.1520    -1.2750     0.2890 ho         1 A9V       0.441000
     21 H2          -3.3440     0.3810     1.6400 h1         1 A9V       0.076700
     22 H3          -3.2200     1.5530    -0.5340 hc         1 A9V       0.063200
     23 H4          -4.3640     0.4190    -1.2330 hc         1 A9V       0.063200
     24 H5          -6.0930     1.1540     0.4210 h1         1 A9V       0.021700
     25 H6          -4.9180     2.2360     1.1650 h1         1 A9V       0.021700
     26 H7          -6.2470     3.2780    -0.4460 ho         1 A9V       0.444000
     27 H8          -1.0560     0.6110     0.9770 ha         1 A9V       0.125000
     28 H9           0.7690    -2.6500    -1.1410 ha         1 A9V       0.117000
     29 H10         -1.4410    -3.6180    -1.5140 ha         1 A9V       0.110000
     30 H11         -3.4700    -2.5370    -0.6640 ha         1 A9V       0.112000
     31 H12          2.4660    -1.9210     0.2770 h1         1 A9V       0.034200
     32 H13          2.4150    -1.0600    -1.2680 h1         1 A9V       0.034200
     33 H14          3.4580     0.0910     1.3530 hc         1 A9V       0.061700
     34 H15          4.8790    -1.7310     0.5100 hc         1 A9V       0.042200
     35 H16          4.9330    -0.9940    -1.0820 hc         1 A9V       0.042200
     36 H17          6.0550     0.1980     1.4940 hc         1 A9V       0.039950
     37 H18          6.9870    -0.4520     0.1590 hc         1 A9V       0.039950
     38 H19          6.8820     2.0460     0.0870 hc         1 A9V       0.038700
     39 H20          6.1700     1.3220    -1.3430 hc         1 A9V       0.038700
     40 H21          4.6510     2.3990     1.0760 hc         1 A9V       0.039950
     41 H22          4.7040     3.1240    -0.5180 hc         1 A9V       0.039950
     42 H23          3.5350     1.1810    -1.4930 hc         1 A9V       0.042200
     43 H24          2.5990     1.8510    -0.1680 hc         1 A9V       0.042200
@<TRIPOS>BOND
     1     1     2 1   
     2     1    20 1   
     3     2     3 1   
     4     2     6 1   
     5     2    21 1   
     6     3     4 1   
     7     3    22 1   
     8     3    23 1   
     9     4     5 1   
    10     4    24 1   
    11     4    25 1   
    12     5    26 1   
    13     6     7 ar  
    14     6    11 ar  
    15     7     8 ar  
    16     7    27 1   
    17     8     9 ar  
    18     8    12 1   
    19     9    10 ar  
    20     9    28 1   
    21    10    11 ar  
    22    10    29 1   
    23    11    30 1   
    24    12    13 1   
    25    13    14 1   
    26    13    31 1   
    27    13    32 1   
    28    14    15 1   
    29    14    19 1   
    30    14    33 1   
    31    15    16 1   
    32    15    34 1   
    33    15    35 1   
    34    16    17 1   
    35    16    36 1   
    36    16    37 1   
    37    17    18 1   
    38    17    38 1   
    39    17    39 1   
    40    18    19 1   
    41    18    40 1   
    42    18    41 1   
    43    19    42 1   
    44    19    43 1   
@<TRIPOS>SUBSTRUCTURE
     1 A9V         1 TEMP              0 ****  ****    0 ROOT
