@<TRIPOS>MOLECULE
A9V
   43    44     1     0     0
SMALL
No Charge or Current Charge


@<TRIPOS>ATOM
      1 O1          -4.2240    -0.5080     1.7060 oh         1 A9V      -0.651000
      2 C2          -3.5930     0.2670     0.6820 c3         1 A9V       0.215600
      3 C1          -4.6340     0.6480    -0.3970 c3         1 A9V      -0.118400
      4 C           -5.7150     1.6210     0.1140 c3         1 A9V       0.164600
      5 O           -6.5970     1.9630    -0.9600 oh         1 A9V      -0.663000
      6 C3          -2.4020    -0.5110     0.1180 ca         1 A9V      -0.073300
      7 C15         -1.0880    -0.0820     0.4000 ca         1 A9V      -0.143000
      8 C7           0.0230    -0.7790    -0.1020 ca         1 A9V       0.150100
      9 C6          -0.1750    -1.9270    -0.8980 ca         1 A9V      -0.197000
     10 C5          -1.4790    -2.3660    -1.1810 ca         1 A9V      -0.071000
     11 C4          -2.5860    -1.6640    -0.6760 ca         1 A9V      -0.137000
     12 O2           1.2780    -0.3010     0.2120 os         1 A9V      -0.349100
     13 C8           2.4800    -0.9360    -0.2580 c3         1 A9V       0.167600
     14 C9           3.7160    -0.1480     0.2620 c6         1 A9V      -0.064700
     15 C14          5.0370    -0.8890    -0.0910 c6         1 A9V      -0.070400
     16 C13          6.2780    -0.1210     0.4290 c6         1 A9V      -0.072900
     17 C12          6.3050     1.3300    -0.1100 c6         1 A9V      -0.075400
     18 C11          4.9960     2.0790     0.2400 c6         1 A9V      -0.072900
     19 C10          3.7540     1.3120    -0.2780 c6         1 A9V      -0.070400
     20 H1          -4.2240    -1.4360     1.3890 ho         1 A9V       0.441000
     21 H2          -3.2130     1.2050     1.1140 h1         1 A9V       0.076700
     22 H3          -4.1080     1.1180    -1.2360 hc         1 A9V       0.063200
     23 H4          -5.1190    -0.2530    -0.7890 hc         1 A9V       0.063200
     24 H5          -6.2770     1.1500     0.9320 h1         1 A9V       0.021700
     25 H6          -5.2320     2.5240     0.5110 h1         1 A9V       0.021700
     26 H7          -7.2720     2.5760    -0.5910 ho         1 A9V       0.444000
     27 H8          -0.9230     0.7990     1.0140 ha         1 A9V       0.125000
     28 H9           0.6630    -2.4880    -1.3010 ha         1 A9V       0.117000
     29 H10         -1.6330    -3.2520    -1.7930 ha         1 A9V       0.110000
     30 H11         -3.5860    -2.0240    -0.9050 ha         1 A9V       0.112000
     31 H12          2.5350    -1.9680     0.1140 h1         1 A9V       0.034200
     32 H13          2.5050    -0.9590    -1.3550 h1         1 A9V       0.034200
     33 H14          3.6210    -0.1160     1.3570 hc         1 A9V       0.061700
     34 H15          5.0270    -1.9000     0.3390 hc         1 A9V       0.042200
     35 H16          5.1140    -1.0150    -1.1800 hc         1 A9V       0.042200
     36 H17          6.2710    -0.1080     1.5280 hc         1 A9V       0.039950
     37 H18          7.1940    -0.6470     0.1290 hc         1 A9V       0.039950
     38 H19          7.1660     1.8680     0.3100 hc         1 A9V       0.038700
     39 H20          6.4450     1.3180    -1.2000 hc         1 A9V       0.038700
     40 H21          4.9230     2.2070     1.3290 hc         1 A9V       0.039950
     41 H22          5.0180     3.0880    -0.1920 hc         1 A9V       0.039950
     42 H23          3.7610     1.3020    -1.3770 hc         1 A9V       0.042200
     43 H24          2.8450     1.8520     0.0210 hc         1 A9V       0.042200
@<TRIPOS>BOND
     1     1     2 1   
     2     1    20 1   
     3     2     3 1   
     4     2     6 1   
     5     2    21 1   
     6     3     4 1   
     7     3    22 1   
     8     3    23 1   
     9     4     5 1   
    10     4    24 1   
    11     4    25 1   
    12     5    26 1   
    13     6     7 ar  
    14     6    11 ar  
    15     7     8 ar  
    16     7    27 1   
    17     8     9 ar  
    18     8    12 1   
    19     9    10 ar  
    20     9    28 1   
    21    10    11 ar  
    22    10    29 1   
    23    11    30 1   
    24    12    13 1   
    25    13    14 1   
    26    13    31 1   
    27    13    32 1   
    28    14    15 1   
    29    14    19 1   
    30    14    33 1   
    31    15    16 1   
    32    15    34 1   
    33    15    35 1   
    34    16    17 1   
    35    16    36 1   
    36    16    37 1   
    37    17    18 1   
    38    17    38 1   
    39    17    39 1   
    40    18    19 1   
    41    18    40 1   
    42    18    41 1   
    43    19    42 1   
    44    19    43 1   
@<TRIPOS>SUBSTRUCTURE
     1 A9V         1 TEMP              0 ****  ****    0 ROOT
