@<TRIPOS>MOLECULE
A9W
   32    33     1     0     0
SMALL
No Charge or Current Charge


@<TRIPOS>ATOM
      1 C            4.4110    -1.9800    -1.0680 c3         1 A9W      -0.046800
      2 N           -5.1670    -0.1830     0.7930 nz         1 A9W      -0.976000
      3 O            1.0340     1.6600     1.7390 oh         1 A9W      -0.523100
      4 C1           3.5030    -1.0050    -0.3320 ca         1 A9W      -0.098300
      5 C2           4.0540     0.0030     0.4790 ca         1 A9W      -0.050000
      6 C3           3.2110     0.8950     1.1620 ca         1 A9W      -0.135000
      7 C4           1.8170     0.7910     1.0390 ca         1 A9W       0.163100
      8 C5           1.2410    -0.2130     0.2200 cp         1 A9W      -0.176000
      9 C6           2.1050    -1.1100    -0.4520 ca         1 A9W      -0.050000
     10 C7          -0.2360    -0.3590     0.0610 cp         1 A9W       0.036000
     11 C8          -0.8940    -1.4760     0.6260 ca         1 A9W      -0.085000
     12 C9          -2.2820    -1.6460     0.4900 ca         1 A9W      -0.078000
     13 C10         -3.0430    -0.7010    -0.2220 ca         1 A9W      -0.190300
     14 C11         -4.5370    -0.8810    -0.3700 c3         1 A9W       0.166900
     15 C12         -2.4010     0.4100    -0.8020 ca         1 A9W      -0.083000
     16 C13         -1.0120     0.5820    -0.6660 ca         1 A9W       0.114000
     17 Cl          -0.2650     1.9790    -1.4410 cl         1 A9W      -0.131000
     18 H1           4.5920    -2.8770    -0.4640 hc         1 A9W       0.049367
     19 H2           3.9670    -2.3000    -2.0180 hc         1 A9W       0.049367
     20 H3           5.3840    -1.5290    -1.2960 hc         1 A9W       0.049367
     21 H4          -4.9440     0.8220     0.8200 hn         1 A9W       0.510000
     22 H5          -6.1960    -0.2470     0.7950 hn         1 A9W       0.510000
     23 H7           0.0980     1.4310     1.5660 ho         1 A9W       0.454000
     24 H8           5.1330     0.0940     0.5850 ha         1 A9W       0.129000
     25 H9           3.6400     1.6680     1.7950 ha         1 A9W       0.142000
     26 H10          1.6780    -1.8910    -1.0790 ha         1 A9W       0.115000
     27 H11         -0.3160    -2.2130     1.1790 ha         1 A9W       0.151000
     28 H12         -2.7640    -2.5130     0.9380 ha         1 A9W       0.125000
     29 H13         -4.8100    -1.9430    -0.3580 hx         1 A9W       0.107700
     30 H14         -4.8980    -0.4420    -1.3070 hx         1 A9W       0.107700
     31 H15         -2.9770     1.1420    -1.3640 ha         1 A9W       0.132000
     32 H6          -4.8560    -0.5630     1.6980 hn         1 A9W       0.510000
@<TRIPOS>BOND
     1     1     4 1   
     2     1    18 1   
     3     1    19 1   
     4     1    20 1   
     5     2    14 1   
     6     2    21 1   
     7     2    22 1   
     8     2    32 1   
     9     3     7 1   
    10     3    23 1   
    11     4     5 ar  
    12     4     9 ar  
    13     5     6 ar  
    14     5    24 1   
    15     6     7 ar  
    16     6    25 1   
    17     7     8 ar  
    18     8     9 ar  
    19     8    10 1   
    20     9    26 1   
    21    10    11 ar  
    22    10    16 ar  
    23    11    12 ar  
    24    11    27 1   
    25    12    13 ar  
    26    12    28 1   
    27    13    14 1   
    28    13    15 ar  
    29    14    29 1   
    30    14    30 1   
    31    15    16 ar  
    32    15    31 1   
    33    16    17 1   
@<TRIPOS>SUBSTRUCTURE
     1 A9W         1 TEMP              0 ****  ****    0 ROOT
