@<TRIPOS>MOLECULE
A9W
   32    33     1     0     0
SMALL
bcc


@<TRIPOS>ATOM
      1 C            4.3770    -1.9600    -1.0880 c3         1 A9W      -0.046800
      2 N           -5.1840    -0.1290     0.7330 nz         1 A9W      -0.838600
      3 O            1.0420     1.6340     1.7490 oh         1 A9W      -0.484100
      4 C1           3.4820    -0.9990    -0.3600 ca         1 A9W      -0.098300
      5 C2           4.0020     0.0180     0.4370 ca         1 A9W      -0.068000
      6 C3           3.1770     0.8860     1.1340 ca         1 A9W      -0.153000
      7 C4           1.7950     0.7660     1.0400 ca         1 A9W       0.163100
      8 C5           1.2470    -0.2310     0.2290 cp         1 A9W      -0.176000
      9 C6           2.0980    -1.1010    -0.4460 ca         1 A9W      -0.068000
     10 C7          -0.2190    -0.3790     0.0900 cp         1 A9W       0.036000
     11 C8          -0.8710    -1.4820     0.6370 ca         1 A9W      -0.103000
     12 C9          -2.2370    -1.6570     0.4960 ca         1 A9W      -0.096000
     13 C10         -2.9910    -0.7210    -0.2020 ca         1 A9W      -0.190300
     14 C11         -4.4750    -0.8820    -0.3400 c3         1 A9W       0.195100
     15 C12         -2.3620     0.3840    -0.7620 ca         1 A9W      -0.101000
     16 C13         -0.9940     0.5440    -0.6130 ca         1 A9W       0.022400
     17 CL          -0.2390     1.9120    -1.3570 cl         1 A9W      -0.039400
     18 H1           4.5440    -2.8680    -0.5050 hc         1 A9W       0.049367
     19 H2           3.9440    -2.2650    -2.0410 hc         1 A9W       0.049367
     20 H3           5.3530    -1.5200    -1.2900 hc         1 A9W       0.049367
     21 H4          -4.9970     0.8730     0.6830 hn         1 A9W       0.454800
     22 H5          -6.1950    -0.2470     0.6610 hn         1 A9W       0.454800
     23 H7           0.1110     1.3840     1.7340 ho         1 A9W       0.415000
     24 H8           5.0760     0.1360     0.5230 ha         1 A9W       0.147000
     25 H9           3.6030     1.6630     1.7550 ha         1 A9W       0.160000
     26 H10          1.6560    -1.8710    -1.0690 ha         1 A9W       0.133000
     27 H11         -0.2890    -2.2140     1.1820 ha         1 A9W       0.169000
     28 H12         -2.7150    -2.5260     0.9290 ha         1 A9W       0.143000
     29 H13         -4.7790    -1.9220    -0.2470 hx         1 A9W       0.107700
     30 H14         -4.8430    -0.4950    -1.2860 hx         1 A9W       0.107700
     31 H15         -2.9330     1.1130    -1.3230 ha         1 A9W       0.150000
     32 H6          -4.9120    -0.4420     1.6650 hn         1 A9W       0.454800
@<TRIPOS>BOND
     1     1     4 1   
     2     1    18 1   
     3     1    19 1   
     4     1    20 1   
     5     2    14 1   
     6     2    21 1   
     7     2    22 1   
     8     2    32 1   
     9     3     7 1   
    10     3    23 1   
    11     4     5 ar  
    12     4     9 ar  
    13     5     6 ar  
    14     5    24 1   
    15     6     7 ar  
    16     6    25 1   
    17     7     8 ar  
    18     8     9 ar  
    19     8    10 1   
    20     9    26 1   
    21    10    11 ar  
    22    10    16 ar  
    23    11    12 ar  
    24    11    27 1   
    25    12    13 ar  
    26    12    28 1   
    27    13    14 1   
    28    13    15 ar  
    29    14    29 1   
    30    14    30 1   
    31    15    16 ar  
    32    15    31 1   
    33    16    17 1   
@<TRIPOS>SUBSTRUCTURE
     1 A9W         1 TEMP              0 ****  ****    0 ROOT
