@<TRIPOS>MOLECULE
A9X
   39    40     1     0     0
SMALL
bcc


@<TRIPOS>ATOM
      1 C10         -0.6680   -20.3970    -2.7330 cc         1 A9X      -0.004600
      2 C13          1.8830   -19.1540    -4.8330 c3         1 A9X      -0.185700
      3 C20         -0.4740   -21.7230    -2.9510 cd         1 A9X      -0.055200
      4 C21         -0.9590   -22.5820    -1.9170 ca         1 A9X      -0.064800
      5 C22         -0.8960   -23.9880    -1.8920 ca         1 A9X      -0.149000
      6 C03         -1.4170   -24.6800    -0.8250 ca         1 A9X       0.094100
      7 C04         -2.0180   -23.9740     0.2590 ca         1 A9X       0.114100
      8 C07         -2.0850   -22.5950     0.2430 ca         1 A9X      -0.177000
      9 C08         -1.5530   -21.9040    -0.8480 ca         1 A9X       0.057900
     10 C11         -0.3310   -19.2380    -3.5600 c          1 A9X       0.623300
     11 C12          0.3680   -19.4550    -4.8780 c3         1 A9X      -0.139400
     12 C14          2.1850   -17.6690    -4.6760 c3         1 A9X      -0.048400
     13 C16          2.5340   -20.0490    -3.7530 c          1 A9X       0.920600
     14 O02         -1.4190   -26.0190    -0.6950 os         1 A9X      -0.307900
     15 O05         -2.4890   -24.7480     1.2440 os         1 A9X      -0.303900
     16 O17          2.8940   -21.1860    -4.1160 o          1 A9X      -0.833300
     17 O18          2.5980   -19.5790    -2.5990 o          1 A9X      -0.833300
     18 O19         -0.6450   -18.1260    -3.1710 o          1 A9X      -0.548100
     19 SE09        -1.5310   -20.0550    -1.1020 ss         1 A9X      -0.230500
     20 H1           2.2640   -19.4670    -5.8120 hc         1 A9X       0.033700
     21 H2           3.8440   -16.2740    -4.8100 hc         1 A9X       0.019700
     22 H3           4.2830   -17.8340    -4.1280 hc         1 A9X       0.019700
     23 H4           4.0070   -17.6760    -5.8610 hc         1 A9X       0.019700
     24 H5           0.0140   -22.1110    -3.8350 ha         1 A9X       0.175000
     25 H6          -0.4360   -24.5040    -2.7250 ha         1 A9X       0.144000
     26 H7          -0.9510   -27.8270    -1.4430 h1         1 A9X       0.036367
     27 H8          -1.3540   -26.6300    -2.6870 h1         1 A9X       0.036367
     28 H9           0.2190   -26.5620    -1.8620 h1         1 A9X       0.036367
     29 H10         -3.4240   -24.9230     3.0180 h1         1 A9X       0.035033
     30 H11         -2.4340   -23.4580     2.8800 h1         1 A9X       0.035033
     31 H12         -4.0000   -23.5570     2.0430 h1         1 A9X       0.035033
     32 H13         -2.5420   -22.0520     1.0590 ha         1 A9X       0.138000
     33 H14         -0.1040   -18.7950    -5.6110 hc         1 A9X       0.039200
     34 H15          0.2210   -20.4760    -5.2290 hc         1 A9X       0.039200
     35 H16          1.8710   -17.3160    -3.6930 hc         1 A9X       0.028200
     36 H17          1.5950   -17.1070    -5.4070 hc         1 A9X       0.028200
     37 C15          3.6600   -17.3470    -4.8790 c3         1 A9X      -0.077100
     38 C01         -0.8440   -26.7850    -1.7320 c3         1 A9X       0.123700
     39 C06         -3.1170   -24.1250     2.3470 c3         1 A9X       0.125700
@<TRIPOS>BOND
     1     1     3 2   
     2     1    10 1   
     3     1    19 1   
     4     2    11 1   
     5     2    12 1   
     6     2    13 1   
     7     2    20 1   
     8     3     4 1   
     9     3    24 1   
    10     4     5 ar  
    11     4     9 ar  
    12     5     6 ar  
    13     5    25 1   
    14     6     7 ar  
    15     6    14 1   
    16     7     8 ar  
    17     7    15 1   
    18     8     9 ar  
    19     8    32 1   
    20     9    19 1   
    21    10    11 1   
    22    10    18 2   
    23    11    33 1   
    24    11    34 1   
    25    12    35 1   
    26    12    36 1   
    27    12    37 1   
    28    13    16 1   
    29    13    17 1   
    30    14    38 1   
    31    15    39 1   
    32    21    37 1   
    33    22    37 1   
    34    23    37 1   
    35    26    38 1   
    36    27    38 1   
    37    28    38 1   
    38    29    39 1   
    39    30    39 1   
    40    31    39 1   
@<TRIPOS>SUBSTRUCTURE
     1 A9X         1 TEMP              0 ****  ****    0 ROOT
