@<TRIPOS>MOLECULE
A9X
   39    40     1     0     0
SMALL
No Charge or Current Charge


@<TRIPOS>ATOM
      1 C10         -0.7610   -20.3130    -2.6640 cc         1 A9X      -0.004600
      2 C13          1.8150   -19.1660    -4.9290 c3         1 A9X      -0.185700
      3 C20         -0.4940   -21.6530    -2.9100 cd         1 A9X      -0.105200
      4 C21         -0.9720   -22.5590    -1.8940 ca         1 A9X      -0.064800
      5 C22         -0.8510   -23.9550    -1.8780 ca         1 A9X      -0.131000
      6 C03         -1.3930   -24.6720    -0.7820 ca         1 A9X       0.094100
      7 C04         -2.0440   -23.9700     0.2710 ca         1 A9X       0.114100
      8 C07         -2.1460   -22.5570     0.2200 ca         1 A9X      -0.159000
      9 C08         -1.6000   -21.8770    -0.8770 ca         1 A9X      -0.069000
     10 C11         -0.4130   -19.1520    -3.5390 c          1 A9X       0.623300
     11 C12          0.2670   -19.3970    -4.9110 c3         1 A9X      -0.139400
     12 C14          2.2220   -17.7090    -4.5690 c3         1 A9X      -0.048400
     13 C16          2.5720   -20.2180    -4.0800 c          1 A9X       0.710000
     14 O02         -1.3080   -26.0540    -0.7040 os         1 A9X      -0.331100
     15 O05         -2.5640   -24.6980     1.3290 os         1 A9X      -0.327100
     16 O17          3.2790   -21.0270    -4.6620 o          1 A9X      -0.728000
     17 O18          2.4270   -20.2000    -2.8690 o          1 A9X      -0.728000
     18 O19         -0.6950   -18.0030    -3.2080 o          1 A9X      -0.548100
     19 SE09        -1.6290   -20.1090    -1.1090 ss         1 A9X      -0.103600
     20 H1           2.1160   -19.3280    -5.9720 hc         1 A9X       0.033700
     21 H2           3.9330   -16.3590    -4.5580 hc         1 A9X       0.019700
     22 H3           4.3460   -18.0340    -4.1440 hc         1 A9X       0.019700
     23 H4           4.0020   -17.5930    -5.8330 hc         1 A9X       0.019700
     24 H5           0.0430   -22.0100    -3.7820 ha         1 A9X       0.225000
     25 H6          -0.3480   -24.4550    -2.7000 ha         1 A9X       0.126000
     26 H7          -0.7170   -27.9100    -1.4570 h1         1 A9X       0.036367
     27 H8          -1.1670   -26.7130    -2.6890 h1         1 A9X       0.036367
     28 H9           0.3870   -26.5690    -1.8240 h1         1 A9X       0.036367
     29 H10         -3.5670   -24.8330     3.1570 h1         1 A9X       0.035033
     30 H11         -2.5680   -23.3790     2.9590 h1         1 A9X       0.035033
     31 H12         -4.1230   -23.5230     2.0940 h1         1 A9X       0.035033
     32 H13         -2.6340   -21.9870     1.0050 ha         1 A9X       0.120000
     33 H14         -0.1780   -18.7070    -5.6380 hc         1 A9X       0.039200
     34 H15          0.0880   -20.4210    -5.2510 hc         1 A9X       0.039200
     35 H16          1.9760   -17.4990    -3.5210 hc         1 A9X       0.028200
     36 H17          1.6350   -17.0110    -5.1780 hc         1 A9X       0.028200
     37 C15          3.7190   -17.4090    -4.7900 c3         1 A9X      -0.077100
     38 C01         -0.6690   -26.8460    -1.7200 c3         1 A9X       0.146900
     39 C06         -3.2380   -24.0740     2.4370 c3         1 A9X       0.148900
@<TRIPOS>BOND
     1     1     3 2   
     2     1    10 1   
     3     1    19 1   
     4     2    11 1   
     5     2    12 1   
     6     2    13 1   
     7     2    20 1   
     8     3     4 1   
     9     3    24 1   
    10     4     5 ar  
    11     4     9 ar  
    12     5     6 ar  
    13     5    25 1   
    14     6     7 ar  
    15     6    14 1   
    16     7     8 ar  
    17     7    15 1   
    18     8     9 ar  
    19     8    32 1   
    20     9    19 1   
    21    10    11 1   
    22    10    18 2   
    23    11    33 1   
    24    11    34 1   
    25    12    35 1   
    26    12    36 1   
    27    12    37 1   
    28    13    16 1   
    29    13    17 1   
    30    14    38 1   
    31    15    39 1   
    32    21    37 1   
    33    22    37 1   
    34    23    37 1   
    35    26    38 1   
    36    27    38 1   
    37    28    38 1   
    38    29    39 1   
    39    30    39 1   
    40    31    39 1   
@<TRIPOS>SUBSTRUCTURE
     1 A9X         1 TEMP              0 ****  ****    0 ROOT
