@<TRIPOS>MOLECULE
A9Y
   40    44     1     0     0
SMALL
No Charge or Current Charge


@<TRIPOS>ATOM
      1 CAH          4.2180    -1.9300     0.8380 ca         1 A9Y      -0.032000
      2 CAD          4.2940    -1.5560     2.1960 ca         1 A9Y      -0.121000
      3 CAE          3.8590    -0.2750     2.6100 ca         1 A9Y      -0.086000
      4 CAI          3.3450     0.6420     1.6690 ca         1 A9Y      -0.087000
      5 CAT          3.2760     0.2480     0.3230 ca         1 A9Y      -0.093300
      6 CAR          3.7010    -0.9950    -0.0710 ca         1 A9Y      -0.185600
      7 CAP          3.5040    -1.1060    -1.5350 c          1 A9Y       0.676700
      8 OAB          3.8300    -2.0540    -2.2350 o          1 A9Y      -0.488000
      9 OAO          2.9970     0.0870    -2.0080 os         1 A9Y      -0.426100
     10 CAY          2.7780     1.0020    -0.8880 c5         1 A9Y       0.320900
     11 CAV          1.3000     1.1780    -0.6130 cc         1 A9Y      -0.287300
     12 CAS          0.2950     0.2740    -0.5430 cd         1 A9Y       0.192100
     13 OAC          0.3360    -1.0670    -0.7150 oh         1 A9Y      -0.502100
     14 CAQ          0.7420     2.4390    -0.3420 cc         1 A9Y       0.344300
     15 CAA          1.5210     3.7250    -0.3070 c3         1 A9Y      -0.134400
     16 NAM         -0.5570     2.3910    -0.1090 nd         1 A9Y      -0.542800
     17 NAZ         -0.8560     1.0210    -0.2330 na         1 A9Y       0.063000
     18 CAU         -2.1110     0.4120    -0.0790 cc         1 A9Y       0.545300
     19 NAL         -3.2260     1.1660     0.2280 na         1 A9Y      -0.295600
     20 CAW         -4.2450     0.2620     0.3030 ca         1 A9Y      -0.078200
     21 CAJ         -5.6020     0.4600     0.5830 ca         1 A9Y      -0.104000
     22 CAF         -6.4370    -0.6780     0.5930 ca         1 A9Y      -0.095000
     23 CAG         -5.8990    -1.9610     0.3270 ca         1 A9Y      -0.120000
     24 CAK         -4.5230    -2.1190     0.0480 ca         1 A9Y      -0.059000
     25 CAX         -3.7080    -0.9790     0.0420 ca         1 A9Y       0.101400
     26 NAN         -2.3350    -0.9130    -0.2070 nd         1 A9Y      -0.671100
     27 H1           4.5490    -2.9130     0.5070 ha         1 A9Y       0.135000
     28 H2           4.6890    -2.2570     2.9280 ha         1 A9Y       0.119000
     29 H3           3.9210     0.0050     3.6590 ha         1 A9Y       0.115000
     30 H4           3.0070     1.6280     1.9810 ha         1 A9Y       0.124000
     31 H5           3.3230     1.9410    -1.0560 h1         1 A9Y       0.083700
     32 H7           1.9530     3.9440    -1.2900 hc         1 A9Y       0.056367
     33 H8           0.8780     4.5680    -0.0290 hc         1 A9Y       0.056367
     34 H9           2.3340     3.6710     0.4250 hc         1 A9Y       0.056367
     35 H10         -3.2490     2.1670     0.3620 hn         1 A9Y       0.386000
     36 H11         -6.0010     1.4510     0.7850 ha         1 A9Y       0.123000
     37 H12         -7.4980    -0.5690     0.8060 ha         1 A9Y       0.118000
     38 H13         -6.5510    -2.8320     0.3370 ha         1 A9Y       0.119000
     39 H14         -4.1030    -3.1010    -0.1570 ha         1 A9Y       0.132000
     40 H6          -0.6000    -1.3720    -0.5810 ho         1 A9Y       0.537000
@<TRIPOS>BOND
     1     1     2 ar  
     2     1     6 ar  
     3     1    27 1   
     4     2     3 ar  
     5     2    28 1   
     6     3     4 ar  
     7     3    29 1   
     8     4     5 ar  
     9     4    30 1   
    10     5     6 ar  
    11     5    10 1   
    12     6     7 1   
    13     7     8 2   
    14     7     9 1   
    15     9    10 1   
    16    10    11 1   
    17    10    31 1   
    18    11    12 2   
    19    11    14 1   
    20    12    13 1   
    21    12    17 1   
    22    13    40 1   
    23    14    15 1   
    24    14    16 2   
    25    15    32 1   
    26    15    33 1   
    27    15    34 1   
    28    16    17 1   
    29    17    18 1   
    30    18    19 1   
    31    18    26 2   
    32    19    20 1   
    33    19    35 1   
    34    20    21 ar  
    35    20    25 ar  
    36    21    22 ar  
    37    21    36 1   
    38    22    23 ar  
    39    22    37 1   
    40    23    24 ar  
    41    23    38 1   
    42    24    25 ar  
    43    24    39 1   
    44    25    26 1   
@<TRIPOS>SUBSTRUCTURE
     1 A9Y         1 TEMP              0 ****  ****    0 ROOT
