@<TRIPOS>MOLECULE
A9Y
   40    44     1     0     0
SMALL
abcg2


@<TRIPOS>ATOM
      1 CAH          4.4520    -2.0220     0.6290 ca         1 A9Y      -0.032000
      2 CAD          4.4790    -1.8880     2.0090 ca         1 A9Y      -0.121000
      3 CAE          3.9170    -0.7680     2.6260 ca         1 A9Y      -0.086000
      4 CAI          3.3150     0.2430     1.8860 ca         1 A9Y      -0.087000
      5 CAT          3.2970     0.1020     0.5110 ca         1 A9Y      -0.093300
      6 CAR          3.8500    -1.0050    -0.0970 ca         1 A9Y      -0.185600
      7 CAP          3.6590    -0.8690    -1.5450 c          1 A9Y       0.676700
      8 OAB          3.9860    -1.6070    -2.4360 o          1 A9Y      -0.488000
      9 OAO          3.0150     0.2860    -1.7750 os         1 A9Y      -0.426100
     10 CAY          2.7330     1.0000    -0.5510 c5         1 A9Y       0.320900
     11 CAV          1.2850     1.2800    -0.4230 cc         1 A9Y      -0.287300
     12 CAS          0.2830     0.3590    -0.2380 cd         1 A9Y       0.192100
     13 OAC          0.3420    -0.9480    -0.1230 oh         1 A9Y      -0.502100
     14 CAQ          0.6150     2.5300    -0.4850 cc         1 A9Y       0.344300
     15 CAA          1.2390     3.8650    -0.6840 c3         1 A9Y      -0.134400
     16 NAM         -0.6810     2.4000    -0.3410 nd         1 A9Y      -0.542800
     17 NAZ         -0.8790     1.0670    -0.1930 na         1 A9Y       0.063000
     18 CAU         -2.1260     0.5220    -0.0340 cc         1 A9Y       0.545300
     19 NAL         -3.2520     1.2530     0.0080 na         1 A9Y      -0.295600
     20 CAW         -4.2850     0.3560     0.1720 ca         1 A9Y      -0.078200
     21 CAJ         -5.6570     0.5250     0.2790 ca         1 A9Y      -0.104000
     22 CAF         -6.4140    -0.6260     0.4360 ca         1 A9Y      -0.095000
     23 CAG         -5.8180    -1.8930     0.4850 ca         1 A9Y      -0.120000
     24 CAK         -4.4470    -2.0530     0.3780 ca         1 A9Y      -0.059000
     25 CAX         -3.6730    -0.9070     0.2190 ca         1 A9Y       0.101400
     26 NAN         -2.3090    -0.7630     0.0870 nd         1 A9Y      -0.671100
     27 H1           4.8800    -2.8860     0.1400 ha         1 A9Y       0.135000
     28 H2           4.9370    -2.6570     2.6160 ha         1 A9Y       0.119000
     29 H3           3.9490    -0.6890     3.7050 ha         1 A9Y       0.115000
     30 H4           2.8750     1.1020     2.3740 ha         1 A9Y       0.124000
     31 H5           3.2890     1.9420    -0.5900 h1         1 A9Y       0.083700
     32 H7           1.7590     3.9140    -1.6420 hc         1 A9Y       0.056367
     33 H8           0.4870     4.6500    -0.6630 hc         1 A9Y       0.056367
     34 H9           1.9740     4.0760     0.0940 hc         1 A9Y       0.056367
     35 H10         -3.3130     2.2580    -0.0640 hn         1 A9Y       0.386000
     36 H11         -6.1160     1.5040     0.2420 ha         1 A9Y       0.123000
     37 H12         -7.4890    -0.5430     0.5220 ha         1 A9Y       0.118000
     38 H13         -6.4460    -2.7650     0.6100 ha         1 A9Y       0.119000
     39 H14         -3.9890    -3.0330     0.4150 ha         1 A9Y       0.132000
     40 H6          -0.5740    -1.3060    -0.0100 ho         1 A9Y       0.537000
@<TRIPOS>BOND
     1     1     2 ar  
     2     1     6 ar  
     3     1    27 1   
     4     2     3 ar  
     5     2    28 1   
     6     3     4 ar  
     7     3    29 1   
     8     4     5 ar  
     9     4    30 1   
    10     5     6 ar  
    11     5    10 1   
    12     6     7 1   
    13     7     8 2   
    14     7     9 1   
    15     9    10 1   
    16    10    11 1   
    17    10    31 1   
    18    11    12 2   
    19    11    14 1   
    20    12    13 1   
    21    12    17 1   
    22    13    40 1   
    23    14    15 1   
    24    14    16 2   
    25    15    32 1   
    26    15    33 1   
    27    15    34 1   
    28    16    17 1   
    29    17    18 1   
    30    18    19 1   
    31    18    26 2   
    32    19    20 1   
    33    19    35 1   
    34    20    21 ar  
    35    20    25 ar  
    36    21    22 ar  
    37    21    36 1   
    38    22    23 ar  
    39    22    37 1   
    40    23    24 ar  
    41    23    38 1   
    42    24    25 ar  
    43    24    39 1   
    44    25    26 1   
@<TRIPOS>SUBSTRUCTURE
     1 A9Y         1 TEMP              0 ****  ****    0 ROOT
