@<TRIPOS>MOLECULE
AA0
   73    78     1     0     0
SMALL
abcg2


@<TRIPOS>ATOM
      1 C3          -3.2630    -0.3060    24.5680 ca         1 AA0      -0.131000
      2 C4          -3.0010    -0.8650    23.3400 ca         1 AA0      -0.067000
      3 C5          -3.2810    -0.1690    22.1530 ca         1 AA0       0.133400
      4 N6          -3.0250    -0.7610    20.9300 nc         1 AA0      -0.609100
      5 C9          -4.1040     1.8860    21.0540 c          1 AA0       0.574600
      6 N10         -3.8410     1.1880    19.8730 n          1 AA0      -0.266500
      7 C11         -4.1120     1.8190    18.6060 ca         1 AA0       0.050600
      8 C12         -3.0260     2.2440    17.8550 ca         1 AA0      -0.123000
      9 C13         -3.2440     2.8350    16.6100 ca         1 AA0      -0.022000
     10 N14         -2.2120     3.2870    15.7710 ns         1 AA0      -0.138000
     11 C15         -0.8750     3.0560    15.8670 c          1 AA0       0.614700
     12 O16         -0.3490     2.4130    16.7700 o          1 AA0      -0.577100
     13 C17         -0.0630     3.6390    14.7450 ca         1 AA0      -0.075600
     14 C18         -0.3950     4.8420    14.1150 ca         1 AA0      -0.211000
     15 C19          0.4590     5.2900    13.1220 ca         1 AA0       0.385900
     16 N20          1.5430     4.6330    12.7130 nb         1 AA0      -0.737000
     17 C21          1.8510     3.4570    13.2890 ca         1 AA0       0.617900
     18 C22          1.0700     2.9510    14.3510 ca         1 AA0      -0.180000
     19 N23          2.9290     2.7730    12.7810 nh         1 AA0      -0.776300
     20 C28          3.4820     1.6100    13.4650 c6         1 AA0       0.180300
     21 C27          4.2080     0.7110    12.4760 c6         1 AA0       0.142100
     22 O26          5.1970     1.4190    11.7380 os         1 AA0      -0.451000
     23 C25          4.5940     2.4890    11.0130 c6         1 AA0       0.142100
     24 C24          3.9020     3.4690    11.9400 c6         1 AA0       0.180300
     25 C29         -4.5580     3.0000    16.1630 ca         1 AA0      -0.153000
     26 C30         -5.6230     2.5640    16.9340 ca         1 AA0      -0.080000
     27 C31         -5.4320     1.9530    18.1740 ca         1 AA0      -0.072300
     28 C20         -3.3120    -0.0840    19.8760 cd         1 AA0       0.498800
     29 C32         -6.5920     1.4660    18.9930 c3         1 AA0      -0.047800
     30 C33         -3.8230     1.1230    22.2670 ca         1 AA0      -0.154600
     31 C34         -4.0790     1.6950    23.5160 ca         1 AA0      -0.127000
     32 C35         -3.8220     0.9940    24.6980 ca         1 AA0       0.300000
     33 C41         -4.7560     2.8140    26.0850 c6         1 AA0       0.202800
     34 C40         -3.7020     3.9030    26.2480 c6         1 AA0       0.126800
     35 N31         -4.1460     1.4950    25.9480 nh         1 AA0      -0.800400
     36 N39         -2.8610     3.6130    27.4080 n3         1 AA0      -0.717600
     37 C38         -2.2440     2.2940    27.2860 c6         1 AA0       0.126800
     38 O39         -4.5310     3.0350    21.0260 o          1 AA0      -0.532000
     39 C37         -3.3050     1.2110    27.1120 c6         1 AA0       0.202800
     40 C43         -1.8610     4.6490    27.6100 c3         1 AA0       0.150100
     41 H3          -3.0580    -0.8930    25.4510 ha         1 AA0       0.117000
     42 H4          -2.5870    -1.8630    23.2730 ha         1 AA0       0.131000
     43 H20         -3.1450    -0.5040    18.8920 h5         1 AA0       0.054800
     44 H12         -2.0260     2.1150    18.2350 ha         1 AA0       0.159000
     45 H14         -2.5220     3.7590    14.9350 hn         1 AA0       0.158000
     46 H29         -4.7400     3.4620    15.2000 ha         1 AA0       0.114000
     47 H18         -1.2480     5.4360    14.4090 ha         1 AA0       0.126000
     48 H22          1.3240     2.0390    14.8650 ha         1 AA0       0.142000
     49 H19          0.2660     6.2370    12.6290 h4         1 AA0       0.021100
     50 H281         4.1730     1.9270    14.2580 h1         1 AA0       0.060450
     51 H282         2.6880     1.0240    13.9200 h1         1 AA0       0.060450
     52 H241         3.3900     4.2280    11.3560 h1         1 AA0       0.060450
     53 H242         4.6490     3.9690    12.5720 h1         1 AA0       0.060450
     54 H271         4.7190    -0.0880    13.0110 h1         1 AA0       0.056450
     55 H272         3.4810     0.2680    11.7820 h1         1 AA0       0.056450
     56 H251         5.3920     2.9920    10.4670 h1         1 AA0       0.056450
     57 H252         3.8720     2.0810    10.2940 h1         1 AA0       0.056450
     58 H30         -6.6310     2.6900    16.5600 ha         1 AA0       0.119000
     59 H321        -6.7260     2.0840    19.8840 hc         1 AA0       0.050700
     60 H322        -7.5120     1.5020    18.4110 hc         1 AA0       0.050700
     61 H323        -6.4370     0.4400    19.3310 hc         1 AA0       0.050700
     62 H34         -4.4710     2.6980    23.5290 ha         1 AA0       0.135000
     63 H371        -2.8270     0.2410    27.0210 h1         1 AA0       0.062950
     64 H372        -3.9470     1.1840    27.9960 h1         1 AA0       0.062950
     65 H381        -1.6630     2.0940    28.1890 h1         1 AA0       0.042200
     66 H382        -1.5500     2.2590    26.4270 h1         1 AA0       0.042200
     67 H431        -2.3530     5.6140    27.7430 h1         1 AA0       0.033367
     68 H432        -1.2780     4.4290    28.5060 h1         1 AA0       0.033367
     69 H433        -1.1650     4.7320    26.7580 h1         1 AA0       0.033367
     70 H402        -3.0970     3.9760    25.3280 h1         1 AA0       0.042200
     71 H411        -5.3800     2.7910    26.9830 h1         1 AA0       0.062950
     72 H412        -5.4100     3.0220    25.2420 h1         1 AA0       0.062950
     73 H401        -4.1890     4.8690    26.4010 h1         1 AA0       0.042200
@<TRIPOS>BOND
     1     1     2 ar  
     2     1    32 ar  
     3     1    41 1   
     4     2     3 ar  
     5     2    42 1   
     6     3     4 1   
     7     3    30 ar  
     8     4    28 2   
     9     5     6 1   
    10     5    30 1   
    11     5    38 2   
    12     6     7 1   
    13     6    28 1   
    14     7     8 ar  
    15     7    27 ar  
    16     8     9 ar  
    17     8    44 1   
    18     9    10 1   
    19     9    25 ar  
    20    10    11 1   
    21    10    45 1   
    22    11    12 2   
    23    11    13 1   
    24    13    14 ar  
    25    13    18 ar  
    26    14    15 ar  
    27    14    47 1   
    28    15    16 ar  
    29    15    49 1   
    30    16    17 ar  
    31    17    18 ar  
    32    17    19 1   
    33    18    48 1   
    34    19    20 1   
    35    19    24 1   
    36    20    21 1   
    37    20    50 1   
    38    20    51 1   
    39    21    22 1   
    40    21    54 1   
    41    21    55 1   
    42    22    23 1   
    43    23    24 1   
    44    23    56 1   
    45    23    57 1   
    46    24    52 1   
    47    24    53 1   
    48    25    26 ar  
    49    25    46 1   
    50    26    27 ar  
    51    26    58 1   
    52    27    29 1   
    53    28    43 1   
    54    29    59 1   
    55    29    60 1   
    56    29    61 1   
    57    30    31 ar  
    58    31    32 ar  
    59    31    62 1   
    60    32    35 1   
    61    33    34 1   
    62    33    35 1   
    63    33    71 1   
    64    33    72 1   
    65    34    36 1   
    66    34    70 1   
    67    34    73 1   
    68    35    39 1   
    69    36    37 1   
    70    36    40 1   
    71    37    39 1   
    72    37    65 1   
    73    37    66 1   
    74    39    63 1   
    75    39    64 1   
    76    40    67 1   
    77    40    68 1   
    78    40    69 1   
@<TRIPOS>SUBSTRUCTURE
     1 AA0         1 TEMP              0 ****  ****    0 ROOT
