@<TRIPOS>MOLECULE
AA0
   73    78     1     0     0
SMALL
No Charge or Current Charge


@<TRIPOS>ATOM
      1 C3          -3.2760    -0.1040    24.4250 ca         1 AA0      -0.131000
      2 C4          -3.4430    -0.7270    23.1760 ca         1 AA0      -0.067000
      3 C5          -3.6730     0.0230    22.0080 ca         1 AA0       0.133400
      4 N6          -3.8290    -0.6860    20.8050 nc         1 AA0      -0.609100
      5 C9          -3.9710     2.2260    20.8900 c          1 AA0       0.574600
      6 N10         -4.1130     1.4730    19.7390 n          1 AA0      -0.266500
      7 C11         -4.3800     1.9840    18.4290 ca         1 AA0       0.050600
      8 C12         -3.3130     2.1310    17.5230 ca         1 AA0      -0.123000
      9 C13         -3.5370     2.6300    16.2210 ca         1 AA0      -0.022000
     10 N14         -2.5080     2.8090    15.2550 ns         1 AA0      -0.138000
     11 C15         -1.1610     2.4630    15.2430 c          1 AA0       0.614700
     12 O16         -0.6100     1.8640    16.1610 o          1 AA0      -0.577100
     13 C17         -0.3920     2.8690    13.9940 ca         1 AA0      -0.075600
     14 C18         -0.9840     3.5580    12.9090 ca         1 AA0      -0.211000
     15 C19         -0.2030     3.9000    11.7950 ca         1 AA0       0.385900
     16 N20          1.1080     3.6040    11.6920 nb         1 AA0      -0.737000
     17 C21          1.6890     2.9500    12.7110 ca         1 AA0       0.617900
     18 C22          0.9820     2.5680    13.8680 ca         1 AA0      -0.180000
     19 N23          3.0610     2.6690    12.5220 nh         1 AA0      -0.776300
     20 C28          3.7790     1.6850    13.4010 c6         1 AA0       0.180300
     21 C27          5.0840     1.1350    12.7530 c6         1 AA0       0.142100
     22 O26          5.9230     2.2160    12.2860 os         1 AA0      -0.451000
     23 C25          5.2650     3.0280    11.2870 c6         1 AA0       0.142100
     24 C24          3.9680     3.6730    11.8590 c6         1 AA0       0.180300
     25 C29         -4.8450     2.9870    15.8500 ca         1 AA0      -0.153000
     26 C30         -5.9130     2.8440    16.7500 ca         1 AA0      -0.080000
     27 C31         -5.6920     2.3400    18.0450 ca         1 AA0      -0.072300
     28 C20         -4.0440     0.0900    19.7330 cd         1 AA0       0.498800
     29 C32         -6.8670     2.1880    19.0070 c3         1 AA0      -0.047800
     30 C33         -3.7320     1.4260    22.1190 ca         1 AA0      -0.154600
     31 C34         -3.5650     2.0520    23.3760 ca         1 AA0      -0.127000
     32 C35         -3.3380     1.2970    24.5390 ca         1 AA0       0.300000
     33 C41         -4.2260     2.8930    26.2860 c6         1 AA0       0.202800
     34 C40         -3.6660     3.9110    27.3330 c6         1 AA0       0.126800
     35 N31         -3.1730     1.9490    25.7840 nh         1 AA0      -0.800400
     36 N39         -2.9490     3.2460    28.4630 n3         1 AA0      -0.717600
     37 C38         -1.8630     2.3700    27.9270 c6         1 AA0       0.126800
     38 O39         -4.0360     3.4500    20.8890 o          1 AA0      -0.532000
     39 C37         -2.3830     1.3190    26.8930 c6         1 AA0       0.202800
     40 C43         -2.4590     4.2090    29.4740 c3         1 AA0       0.150100
     41 H3          -3.1110    -0.7210    25.3030 ha         1 AA0       0.117000
     42 H4          -3.3950    -1.8120    23.1130 ha         1 AA0       0.131000
     43 H20         -4.1790    -0.3930    18.7710 h5         1 AA0       0.054800
     44 H12         -2.3170     1.8620    17.8570 ha         1 AA0       0.159000
     45 H14         -2.8180     3.2810    14.4170 hn         1 AA0       0.158000
     46 H29         -5.0400     3.3790    14.8530 ha         1 AA0       0.114000
     47 H18         -2.0330     3.8370    12.9060 ha         1 AA0       0.126000
     48 H22          1.4940     2.0520    14.6720 ha         1 AA0       0.142000
     49 H19         -0.6450     4.4310    10.9530 h4         1 AA0       0.021100
     50 H281         4.0340     2.1570    14.3610 h1         1 AA0       0.060450
     51 H282         3.1310     0.8230    13.6210 h1         1 AA0       0.060450
     52 H241         3.4650     4.1850    11.0270 h1         1 AA0       0.060450
     53 H242         4.2540     4.4490    12.5850 h1         1 AA0       0.060450
     54 H271         5.6410     0.5370    13.4880 h1         1 AA0       0.056450
     55 H272         4.8320     0.4820    11.9050 h1         1 AA0       0.056450
     56 H251         5.9550     3.8150    10.9510 h1         1 AA0       0.056450
     57 H252         5.0160     2.4020    10.4180 h1         1 AA0       0.056450
     58 H30         -6.9160     3.1260    16.4370 ha         1 AA0       0.119000
     59 H321        -6.7710     2.8740    19.8570 hc         1 AA0       0.050700
     60 H322        -7.8250     2.4040    18.5180 hc         1 AA0       0.050700
     61 H323        -6.9260     1.1670    19.4030 hc         1 AA0       0.050700
     62 H34         -3.5990     3.1360    23.4480 ha         1 AA0       0.135000
     63 H371        -1.5140     0.7800    26.4860 h1         1 AA0       0.062950
     64 H372        -3.0050     0.5840    27.4250 h1         1 AA0       0.062950
     65 H381        -1.3660     1.8330    28.7480 h1         1 AA0       0.042200
     66 H382        -1.0930     2.9840    27.4370 h1         1 AA0       0.042200
     67 H431        -3.2900     4.8020    29.8790 h1         1 AA0       0.033367
     68 H432        -1.9800     3.6830    30.3110 h1         1 AA0       0.033367
     69 H433        -1.7250     4.8990    29.0360 h1         1 AA0       0.033367
     70 H402        -2.9870     4.6030    26.8120 h1         1 AA0       0.042200
     71 H411        -5.0400     2.3220    26.7560 h1         1 AA0       0.062950
     72 H412        -4.6720     3.4630    25.4580 h1         1 AA0       0.062950
     73 H401        -4.5030     4.5130    27.7140 h1         1 AA0       0.042200
@<TRIPOS>BOND
     1     1     2 ar  
     2     1    32 ar  
     3     1    41 1   
     4     2     3 ar  
     5     2    42 1   
     6     3     4 1   
     7     3    30 ar  
     8     4    28 2   
     9     5     6 1   
    10     5    30 1   
    11     5    38 2   
    12     6     7 1   
    13     6    28 1   
    14     7     8 ar  
    15     7    27 ar  
    16     8     9 ar  
    17     8    44 1   
    18     9    10 1   
    19     9    25 ar  
    20    10    11 1   
    21    10    45 1   
    22    11    12 2   
    23    11    13 1   
    24    13    14 ar  
    25    13    18 ar  
    26    14    15 ar  
    27    14    47 1   
    28    15    16 ar  
    29    15    49 1   
    30    16    17 ar  
    31    17    18 ar  
    32    17    19 1   
    33    18    48 1   
    34    19    20 1   
    35    19    24 1   
    36    20    21 1   
    37    20    50 1   
    38    20    51 1   
    39    21    22 1   
    40    21    54 1   
    41    21    55 1   
    42    22    23 1   
    43    23    24 1   
    44    23    56 1   
    45    23    57 1   
    46    24    52 1   
    47    24    53 1   
    48    25    26 ar  
    49    25    46 1   
    50    26    27 ar  
    51    26    58 1   
    52    27    29 1   
    53    28    43 1   
    54    29    59 1   
    55    29    60 1   
    56    29    61 1   
    57    30    31 ar  
    58    31    32 ar  
    59    31    62 1   
    60    32    35 1   
    61    33    34 1   
    62    33    35 1   
    63    33    71 1   
    64    33    72 1   
    65    34    36 1   
    66    34    70 1   
    67    34    73 1   
    68    35    39 1   
    69    36    37 1   
    70    36    40 1   
    71    37    39 1   
    72    37    65 1   
    73    37    66 1   
    74    39    63 1   
    75    39    64 1   
    76    40    67 1   
    77    40    68 1   
    78    40    69 1   
@<TRIPOS>SUBSTRUCTURE
     1 AA0         1 TEMP              0 ****  ****    0 ROOT
