@<TRIPOS>MOLECULE
AA1
   28    27     1     0     0
SMALL
No Charge or Current Charge


@<TRIPOS>ATOM
      1 N3          -1.5310    -2.0620     1.0780 n8         1 AA1      -0.755200
      2 C4          -0.9810     0.2460     0.1390 c          1 AA1       0.580100
      3 O5          -1.3200     1.4060    -0.0710 o          1 AA1      -0.611100
      4 N6          -1.8770    -0.7030     0.7370 n          1 AA1      -0.235200
      5 C7          -3.2680    -0.2840     1.0770 c3         1 AA1      -0.040000
      6 C8          -4.1330     0.2250    -0.1070 c          1 AA1       0.714000
      7 O9          -4.1370    -0.4130    -1.1530 o          1 AA1      -0.734000
      8 O10         -4.8180     1.2240     0.0670 o          1 AA1      -0.734000
      9 C11          0.4390    -0.2440    -0.2160 c3         1 AA1      -0.163400
     10 C12          1.3720     0.8060    -0.8830 c3         1 AA1      -0.120400
     11 C15          2.7530     0.2230    -1.1860 c          1 AA1       0.589100
     12 O16          3.0130    -0.4120    -2.1990 o          1 AA1      -0.503000
     13 O17          3.6370     0.4500    -0.1640 os         1 AA1      -0.454100
     14 C18          4.9720    -0.0640    -0.3000 c3         1 AA1       0.166600
     15 C19          5.7480     0.3250     0.9690 c3         1 AA1      -0.095100
     16 H3N1        -1.2480    -2.5840     0.2380 hn         1 AA1       0.395000
     17 H3N2        -0.7310    -2.0810     1.7240 hn         1 AA1       0.395000
     18 H7C1        -3.8050    -1.1260     1.5310 h1         1 AA1       0.048200
     19 H7C2        -3.2150     0.5140     1.8280 h1         1 AA1       0.048200
     20 H111         0.3390    -1.1450    -0.8330 hc         1 AA1       0.061700
     21 H112         0.8880    -0.6600     0.6940 hc         1 AA1       0.061700
     22 H121         1.4860     1.6400    -0.1800 hc         1 AA1       0.087200
     23 H122         0.9160     1.1500    -1.8180 hc         1 AA1       0.087200
     24 H181         5.4700     0.3640    -1.1800 h1         1 AA1       0.043200
     25 H182         4.9630    -1.1580    -0.4010 h1         1 AA1       0.043200
     26 H191         5.7820     1.4150     1.0810 hc         1 AA1       0.041700
     27 H192         5.2740    -0.1050     1.8590 hc         1 AA1       0.041700
     28 H193         6.7770    -0.0470     0.9130 hc         1 AA1       0.041700
@<TRIPOS>BOND
     1     1     4 1   
     2     1    16 1   
     3     1    17 1   
     4     2     3 2   
     5     2     4 1   
     6     2     9 1   
     7     4     5 1   
     8     5     6 1   
     9     5    18 1   
    10     5    19 1   
    11     6     7 1   
    12     6     8 1   
    13     9    10 1   
    14     9    20 1   
    15     9    21 1   
    16    10    11 1   
    17    10    22 1   
    18    10    23 1   
    19    11    12 2   
    20    11    13 1   
    21    13    14 1   
    22    14    15 1   
    23    14    24 1   
    24    14    25 1   
    25    15    26 1   
    26    15    27 1   
    27    15    28 1   
@<TRIPOS>SUBSTRUCTURE
     1 AA1         1 TEMP              0 ****  ****    0 ROOT
