@<TRIPOS>MOLECULE
AA1
   28    27     1     0     0
SMALL
bcc


@<TRIPOS>ATOM
      1 N3          -2.0800    -2.0140     0.3980 n8         1 AA1      -0.644800
      2 C4          -0.9970     0.1300     0.5360 c          1 AA1       0.647100
      3 O5          -1.0560     1.3420     0.6900 o          1 AA1      -0.611100
      4 N6          -2.0690    -0.6680     0.7530 n          1 AA1      -0.302200
      5 C7          -3.3780    -0.0790     0.8970 c3         1 AA1      -0.040000
      6 C8          -4.0350     0.2860    -0.4530 c          1 AA1       0.924600
      7 O9          -3.3880     0.0450    -1.4860 o          1 AA1      -0.839300
      8 O10         -5.1720     0.7890    -0.3640 o          1 AA1      -0.839300
      9 C11          0.2880    -0.5610     0.1300 c3         1 AA1      -0.163400
     10 C12          1.4680     0.3940     0.1400 c3         1 AA1      -0.120400
     11 C15          2.7440    -0.2680    -0.3080 c          1 AA1       0.638100
     12 O16          2.8130    -1.3150    -0.9020 o          1 AA1      -0.552000
     13 O17          3.8040     0.4630     0.0120 os         1 AA1      -0.430900
     14 C18          5.1000    -0.0070    -0.3880 c3         1 AA1       0.143400
     15 C19          6.1310     0.9230     0.2040 c3         1 AA1      -0.095100
     16 H3N1        -1.8590    -2.1250    -0.5850 hn         1 AA1       0.339800
     17 H3N2        -1.4040    -2.5280     0.9460 hn         1 AA1       0.339800
     18 H7C1        -4.0090    -0.7950     1.4260 h1         1 AA1       0.048200
     19 H7C2        -3.3190     0.8110     1.5250 h1         1 AA1       0.048200
     20 H111         0.1590    -0.9940    -0.8660 hc         1 AA1       0.061700
     21 H112         0.4860    -1.4050     0.7950 hc         1 AA1       0.061700
     22 H121         1.6170     0.8250     1.1310 hc         1 AA1       0.087200
     23 H122         1.2860     1.2390    -0.5300 hc         1 AA1       0.087200
     24 H181         5.1640    -0.0180    -1.4790 h1         1 AA1       0.043200
     25 H182         5.2520    -1.0280    -0.0330 h1         1 AA1       0.043200
     26 H191         5.9950     1.9490    -0.1350 hc         1 AA1       0.041700
     27 H192         6.1010     0.9090     1.2940 hc         1 AA1       0.041700
     28 H193         7.1240     0.5990    -0.1060 hc         1 AA1       0.041700
@<TRIPOS>BOND
     1     1     4 1   
     2     1    16 1   
     3     1    17 1   
     4     2     3 2   
     5     2     4 1   
     6     2     9 1   
     7     4     5 1   
     8     5     6 1   
     9     5    18 1   
    10     5    19 1   
    11     6     7 1   
    12     6     8 1   
    13     9    10 1   
    14     9    20 1   
    15     9    21 1   
    16    10    11 1   
    17    10    22 1   
    18    10    23 1   
    19    11    12 2   
    20    11    13 1   
    21    13    14 1   
    22    14    15 1   
    23    14    24 1   
    24    14    25 1   
    25    15    26 1   
    26    15    27 1   
    27    15    28 1   
@<TRIPOS>SUBSTRUCTURE
     1 AA1         1 TEMP              0 ****  ****    0 ROOT
