@<TRIPOS>MOLECULE
AA2
   62    65     1     0     0
SMALL
abcg2


@<TRIPOS>ATOM
      1 N1           2.0070     0.1810     0.5300 nb         1 AA2      -0.224000
      2 C2           0.7600    -0.1800     0.8170 ca         1 AA2       0.394900
      3 N3           0.2300    -0.2070     2.0450 nb         1 AA2      -0.250000
      4 C4           0.9780     0.1570     3.0730 cp         1 AA2       0.246500
      5 C5           2.2950     0.5780     2.8560 ca         1 AA2      -0.054000
      6 C6           2.7540     0.5620     1.5490 ca         1 AA2       0.159900
      7 C7           0.3360     0.1290     4.4010 cp         1 AA2      -0.165500
      8 C8          -0.9390     0.6590     4.5520 ca         1 AA2      -0.065000
      9 C9          -1.5680     0.6480     5.7880 ca         1 AA2      -0.120000
     10 C10         -0.9600     0.0870     6.9050 ca         1 AA2      -0.088300
     11 C11          0.3070    -0.4730     6.7320 ca         1 AA2      -0.120000
     12 C12          0.9520    -0.4470     5.5100 ca         1 AA2      -0.065000
     13 C13          0.0650    -0.6560    -1.5520 ca         1 AA2       0.314000
     14 C14         -1.0310    -1.1460    -2.2670 ca         1 AA2      -0.148500
     15 C15         -0.9870    -1.2640    -3.6430 ca         1 AA2      -0.079000
     16 C16          0.1480    -0.9030    -4.3620 ca         1 AA2      -0.107300
     17 C17          1.2300    -0.4170    -3.6400 ca         1 AA2      -0.079000
     18 C18          1.2080    -0.2900    -2.2600 ca         1 AA2      -0.148500
     19 N19         -0.0870    -0.5690    -0.1670 nu         1 AA2      -0.922900
     20 CL20         3.3200     1.1690     4.1060 cl         1 AA2      -0.166000
     21 C21         -1.6380     0.0620     8.2790 c3         1 AA2       0.229500
     22 C22         -0.7180     0.7280     9.3080 c3         1 AA2      -0.080100
     23 C23         -1.9050    -1.3930     8.6770 c3         1 AA2      -0.080100
     24 N24         -2.9130     0.7580     8.3350 n8         1 AA2      -1.011200
     25 C25          0.1850    -0.9830    -5.8610 c3         1 AA2      -0.027100
     26 C26         -0.3220     0.3130    -6.4950 c3         1 AA2       0.170800
     27 N27         -0.2150     0.3190    -7.9390 n3         1 AA2      -0.721600
     28 C28         -0.3210     1.6580    -8.4860 c6         1 AA2       0.127300
     29 C29         -0.1260     1.6210    -9.9900 c6         1 AA2       0.153100
     30 O30         -1.0620     0.7760   -10.6120 os         1 AA2      -0.448000
     31 C31         -0.9870    -0.5270   -10.0870 c6         1 AA2       0.153100
     32 C32         -1.1880    -0.5430    -8.5820 c6         1 AA2       0.127300
     33 H6           3.7650     0.8820     1.3260 h4         1 AA2       0.036100
     34 H8          -1.4400     1.1000     3.7000 ha         1 AA2       0.123000
     35 H9          -2.5520     1.0920     5.8680 ha         1 AA2       0.111500
     36 H11          0.8130    -0.9400     7.5690 ha         1 AA2       0.111500
     37 H12          1.9300    -0.9000     5.4200 ha         1 AA2       0.123000
     38 H14         -1.9290    -1.4440    -1.7370 ha         1 AA2       0.130500
     39 H15         -1.8540    -1.6530    -4.1630 ha         1 AA2       0.113000
     40 H17          2.1320    -0.1260    -4.1670 ha         1 AA2       0.113000
     41 H18          2.0750     0.0860    -1.7460 ha         1 AA2       0.130500
     42 H19         -0.9910    -0.8450     0.1840 hn         1 AA2       0.511000
     43 H221        -1.2000     0.7300    10.2860 hc         1 AA2       0.041367
     44 H222         0.2350     0.2080     9.4010 hc         1 AA2       0.041367
     45 H223        -0.5040     1.7610     9.0300 hc         1 AA2       0.041367
     46 H231        -0.9930    -1.9900     8.6790 hc         1 AA2       0.041367
     47 H232        -2.3410    -1.4300     9.6760 hc         1 AA2       0.041367
     48 H233        -2.6040    -1.8640     7.9830 hc         1 AA2       0.041367
     49 H241        -2.8130     1.7290     8.0640 hn         1 AA2       0.403000
     50 H242        -3.5870     0.3400     7.7060 hn         1 AA2       0.403000
     51 H251         1.2070    -1.1610    -6.2040 hc         1 AA2       0.053700
     52 H252        -0.4130    -1.8340    -6.1960 hc         1 AA2       0.053700
     53 H261        -1.3550     0.5080    -6.1570 h1         1 AA2       0.034700
     54 H262         0.2830     1.1390    -6.1090 h1         1 AA2       0.034700
     55 H281        -1.2950     2.1220    -8.2510 h1         1 AA2       0.040450
     56 H282         0.4520     2.2920    -8.0420 h1         1 AA2       0.040450
     57 H291        -0.2570     2.6190   -10.4120 h1         1 AA2       0.050200
     58 H292         0.9000     1.2910   -10.2090 h1         1 AA2       0.050200
     59 H311        -1.7620    -1.1190   -10.5750 h1         1 AA2       0.050200
     60 H312        -0.0140    -0.9820   -10.3230 h1         1 AA2       0.050200
     61 H321        -1.0680    -1.5710    -8.2330 h1         1 AA2       0.040450
     62 H322        -2.2220    -0.2360    -8.3430 h1         1 AA2       0.040450
@<TRIPOS>BOND
     1     1     2 ar  
     2     1     6 ar  
     3     2     3 ar  
     4     2    19 1   
     5     3     4 ar  
     6     4     5 ar  
     7     4     7 1   
     8     5     6 ar  
     9     5    20 1   
    10     6    33 1   
    11     7     8 ar  
    12     7    12 ar  
    13     8     9 ar  
    14     8    34 1   
    15     9    10 ar  
    16     9    35 1   
    17    10    11 ar  
    18    10    21 1   
    19    11    12 ar  
    20    11    36 1   
    21    12    37 1   
    22    13    14 ar  
    23    13    18 ar  
    24    13    19 1   
    25    14    15 ar  
    26    14    38 1   
    27    15    16 ar  
    28    15    39 1   
    29    16    17 ar  
    30    16    25 1   
    31    17    18 ar  
    32    17    40 1   
    33    18    41 1   
    34    19    42 1   
    35    21    22 1   
    36    21    23 1   
    37    21    24 1   
    38    22    43 1   
    39    22    44 1   
    40    22    45 1   
    41    23    46 1   
    42    23    47 1   
    43    23    48 1   
    44    24    49 1   
    45    24    50 1   
    46    25    26 1   
    47    25    51 1   
    48    25    52 1   
    49    26    27 1   
    50    26    53 1   
    51    26    54 1   
    52    27    28 1   
    53    27    32 1   
    54    28    29 1   
    55    28    55 1   
    56    28    56 1   
    57    29    30 1   
    58    29    57 1   
    59    29    58 1   
    60    30    31 1   
    61    31    32 1   
    62    31    59 1   
    63    31    60 1   
    64    32    61 1   
    65    32    62 1   
@<TRIPOS>SUBSTRUCTURE
     1 AA2         1 TEMP              0 ****  ****    0 ROOT
