@<TRIPOS>MOLECULE
AA2
   62    65     1     0     0
SMALL
No Charge or Current Charge


@<TRIPOS>ATOM
      1 N1           2.2030    -0.3680     0.6470 nb         1 AA2      -0.224000
      2 C2           0.8800    -0.3750     0.8920 ca         1 AA2       0.394900
      3 N3           0.2910    -0.2750     2.0930 nb         1 AA2      -0.250000
      4 C4           1.0850    -0.1410     3.1770 cp         1 AA2       0.246500
      5 C5           2.4980    -0.0930     3.0170 ca         1 AA2      -0.054000
      6 C6           3.0100    -0.2180     1.7140 ca         1 AA2       0.159900
      7 C7           0.3840    -0.0270     4.4970 cp         1 AA2      -0.165500
      8 C8          -0.7530     0.8030     4.6460 ca         1 AA2      -0.065000
      9 C9          -1.4260     0.9110     5.8750 ca         1 AA2      -0.120000
     10 C10         -0.9910     0.1810     7.0100 ca         1 AA2      -0.088300
     11 C11          0.1330    -0.6620     6.8570 ca         1 AA2      -0.120000
     12 C12          0.8040    -0.7660     5.6270 ca         1 AA2      -0.065000
     13 C13          0.1380    -0.5860    -1.5630 ca         1 AA2       0.314000
     14 C14         -0.8190    -1.2900    -2.3130 ca         1 AA2      -0.148500
     15 C15         -0.7330    -1.3430    -3.7160 ca         1 AA2      -0.079000
     16 C16          0.3110    -0.6820    -4.3870 ca         1 AA2      -0.107300
     17 C17          1.2620     0.0390    -3.6410 ca         1 AA2      -0.079000
     18 C18          1.1730     0.0890    -2.2380 ca         1 AA2      -0.148500
     19 N19          0.0030    -0.5510    -0.1700 nu         1 AA2      -0.922900
     20 Cl20         3.6230     0.1700     4.3540 cl         1 AA2      -0.166000
     21 C21         -1.6990     0.2640     8.3860 c3         1 AA2       0.229500
     22 C22         -0.7110     0.7620     9.4680 c3         1 AA2      -0.080100
     23 C23         -2.2670    -1.1230     8.7760 c3         1 AA2      -0.080100
     24 N24         -2.8280     1.2050     8.3670 n8         1 AA2      -1.011200
     25 C25          0.4010    -0.7330    -5.9070 c3         1 AA2      -0.027100
     26 C26         -0.4750     0.3520    -6.5740 c3         1 AA2       0.170800
     27 N27         -0.3220     0.4660    -8.0480 n3         1 AA2      -0.721600
     28 C28         -1.0220     1.6700    -8.5970 c6         1 AA2       0.127300
     29 C29         -0.8410     1.7970   -10.1390 c6         1 AA2       0.153100
     30 O30         -1.2810     0.5860   -10.7970 os         1 AA2      -0.448000
     31 C31         -0.5630    -0.5860   -10.3420 c6         1 AA2       0.153100
     32 C32         -0.7330    -0.7640    -8.8030 c6         1 AA2       0.127300
     33 H6           4.0810    -0.1880     1.5190 h4         1 AA2       0.036100
     34 H8          -1.1140     1.3820     3.7980 ha         1 AA2       0.123000
     35 H9          -2.2880     1.5710     5.9210 ha         1 AA2       0.111500
     36 H11          0.4960    -1.2520     7.6950 ha         1 AA2       0.111500
     37 H12          1.6520    -1.4430     5.5490 ha         1 AA2       0.123000
     38 H14         -1.6310    -1.8070    -1.8090 ha         1 AA2       0.130500
     39 H15         -1.4810    -1.8980    -4.2800 ha         1 AA2       0.113000
     40 H17          2.0660     0.5690    -4.1470 ha         1 AA2       0.113000
     41 H18          1.9020     0.6730    -1.6880 ha         1 AA2       0.130500
     42 H19         -0.9400    -0.7730     0.1500 hn         1 AA2       0.511000
     43 H221        -1.2150     0.8870    10.4350 hc         1 AA2       0.041367
     44 H222         0.1120     0.0530     9.6140 hc         1 AA2       0.041367
     45 H223        -0.2760     1.7280     9.1830 hc         1 AA2       0.041367
     46 H231        -1.4650    -1.8590     8.9020 hc         1 AA2       0.041367
     47 H232        -2.8190    -1.0700     9.7220 hc         1 AA2       0.041367
     48 H233        -2.9480    -1.4970     8.0030 hc         1 AA2       0.041367
     49 H241        -2.4820     2.1140     8.0450 hn         1 AA2       0.403000
     50 H242        -3.4730     0.9170     7.6240 hn         1 AA2       0.403000
     51 H251         1.4400    -0.5980    -6.2300 hc         1 AA2       0.053700
     52 H252         0.0940    -1.7240    -6.2590 hc         1 AA2       0.053700
     53 H261        -1.5260     0.1580    -6.3200 h1         1 AA2       0.034700
     54 H262        -0.2100     1.3140    -6.1140 h1         1 AA2       0.034700
     55 H281        -2.0980     1.6210    -8.3730 h1         1 AA2       0.040450
     56 H282        -0.6360     2.5840    -8.1220 h1         1 AA2       0.040450
     57 H291        -1.4280     2.6460   -10.5170 h1         1 AA2       0.050200
     58 H292         0.2170     1.9780   -10.3800 h1         1 AA2       0.050200
     59 H311        -0.9500    -1.4710   -10.8660 h1         1 AA2       0.050200
     60 H312         0.5020    -0.4790   -10.5920 h1         1 AA2       0.050200
     61 H321        -0.1310    -1.6310    -8.4940 h1         1 AA2       0.040450
     62 H322        -1.7840    -1.0090    -8.5900 h1         1 AA2       0.040450
@<TRIPOS>BOND
     1     1     2 ar  
     2     1     6 ar  
     3     2     3 ar  
     4     2    19 1   
     5     3     4 ar  
     6     4     5 ar  
     7     4     7 1   
     8     5     6 ar  
     9     5    20 1   
    10     6    33 1   
    11     7     8 ar  
    12     7    12 ar  
    13     8     9 ar  
    14     8    34 1   
    15     9    10 ar  
    16     9    35 1   
    17    10    11 ar  
    18    10    21 1   
    19    11    12 ar  
    20    11    36 1   
    21    12    37 1   
    22    13    14 ar  
    23    13    18 ar  
    24    13    19 1   
    25    14    15 ar  
    26    14    38 1   
    27    15    16 ar  
    28    15    39 1   
    29    16    17 ar  
    30    16    25 1   
    31    17    18 ar  
    32    17    40 1   
    33    18    41 1   
    34    19    42 1   
    35    21    22 1   
    36    21    23 1   
    37    21    24 1   
    38    22    43 1   
    39    22    44 1   
    40    22    45 1   
    41    23    46 1   
    42    23    47 1   
    43    23    48 1   
    44    24    49 1   
    45    24    50 1   
    46    25    26 1   
    47    25    51 1   
    48    25    52 1   
    49    26    27 1   
    50    26    53 1   
    51    26    54 1   
    52    27    28 1   
    53    27    32 1   
    54    28    29 1   
    55    28    55 1   
    56    28    56 1   
    57    29    30 1   
    58    29    57 1   
    59    29    58 1   
    60    30    31 1   
    61    31    32 1   
    62    31    59 1   
    63    31    60 1   
    64    32    61 1   
    65    32    62 1   
@<TRIPOS>SUBSTRUCTURE
     1 AA2         1 TEMP              0 ****  ****    0 ROOT
