@<TRIPOS>MOLECULE
AA3
   15    14     1     0     0
SMALL
bcc


@<TRIPOS>ATOM
      1 N            0.6600     1.5850     0.3770 n8         1 AA3      -0.889800
      2 CA           0.2740     0.1830     0.3970 c3         1 AA3       0.014500
      3 C           -1.1820    -0.1120    -0.0400 c          1 AA3       0.901600
      4 O           -1.7990     0.7870    -0.6450 o          1 AA3      -0.843800
      5 CB           1.2330    -0.6410    -0.4670 c3         1 AA3      -0.054400
      6 CG           2.6880    -0.5390    -0.0380 c3         1 AA3      -0.077100
      7 OXT         -1.6150    -1.2520     0.2320 o          1 AA3      -0.843800
      8 H            0.4130     1.9660    -0.5300 hn         1 AA3       0.323800
      9 HN           0.0750     2.0930     1.0300 hn         1 AA3       0.323800
     10 HA           0.3840    -0.1690     1.4310 h1         1 AA3       0.035700
     11 HB1          0.9130    -1.6850    -0.4390 hc         1 AA3       0.035700
     12 HB2          1.1350    -0.3210    -1.5120 hc         1 AA3       0.035700
     13 HG1          3.0480     0.4870    -0.0980 hc         1 AA3       0.013033
     14 HG2          2.8180    -0.8740     0.9930 hc         1 AA3       0.013033
     15 HG3          3.3300    -1.1580    -0.6670 hc         1 AA3       0.013033
@<TRIPOS>BOND
     1     1     2 1   
     2     1     8 1   
     3     1     9 1   
     4     2     3 1   
     5     2     5 1   
     6     2    10 1   
     7     3     4 1   
     8     3     7 1   
     9     5     6 1   
    10     5    11 1   
    11     5    12 1   
    12     6    13 1   
    13     6    14 1   
    14     6    15 1   
@<TRIPOS>SUBSTRUCTURE
     1 AA3         1 TEMP              0 ****  ****    0 ROOT
