@<TRIPOS>MOLECULE
AA3
   15    14     1     0     0
SMALL
No Charge or Current Charge


@<TRIPOS>ATOM
      1 N            0.6130     1.6460     0.4450 n8         1 AA3      -1.000200
      2 CA           0.2780     0.1750     0.3780 c3         1 AA3       0.014500
      3 C           -1.2150    -0.1800    -0.0220 c          1 AA3       0.691000
      4 O           -1.6950     0.3510    -1.0150 o          1 AA3      -0.738500
      5 CB           1.2750    -0.5800    -0.5440 c3         1 AA3      -0.054400
      6 CG           2.7360    -0.5850    -0.0430 c3         1 AA3      -0.077100
      7 OXT         -1.8680    -0.8810     0.7390 o          1 AA3      -0.738500
      8 H            0.3680     2.0710    -0.4570 hn         1 AA3       0.379000
      9 HN          -0.0300     2.1050     1.1010 hn         1 AA3       0.379000
     10 HA           0.4200    -0.2210     1.3930 h1         1 AA3       0.035700
     11 HB1          0.9440    -1.6230    -0.6320 hc         1 AA3       0.035700
     12 HB2          1.2370    -0.1560    -1.5550 hc         1 AA3       0.035700
     13 HG1          3.1490     0.4300    -0.0120 hc         1 AA3       0.013033
     14 HG2          2.8000    -1.0180     0.9620 hc         1 AA3       0.013033
     15 HG3          3.3640    -1.1850    -0.7130 hc         1 AA3       0.013033
@<TRIPOS>BOND
     1     1     2 1   
     2     1     8 1   
     3     1     9 1   
     4     2     3 1   
     5     2     5 1   
     6     2    10 1   
     7     3     4 1   
     8     3     7 1   
     9     5     6 1   
    10     5    11 1   
    11     5    12 1   
    12     6    13 1   
    13     6    14 1   
    14     6    15 1   
@<TRIPOS>SUBSTRUCTURE
     1 AA3         1 TEMP              0 ****  ****    0 ROOT
