@<TRIPOS>MOLECULE
AA4
   19    18     1     0     0
SMALL
bcc


@<TRIPOS>ATOM
      1 N           -7.9760    22.4710    35.6930 n8         1 AA4      -0.862800
      2 CA          -7.4950    21.4410    34.7860 c3         1 AA4       0.012500
      3 C           -8.6660    20.5990    34.2320 c          1 AA4       0.937600
      4 O           -9.8010    20.7800    34.6930 o          1 AA4      -0.826800
      5 CB          -6.4020    20.5080    35.3770 c3         1 AA4      -0.087400
      6 CG          -5.0740    20.4910    34.6170 c3         1 AA4      -0.103400
      7 CD          -5.1730    20.1080    33.1410 c3         1 AA4       0.165400
      8 OE          -5.8960    18.9270    32.9170 oh         1 AA4      -0.666800
      9 OXT         -8.3650    19.7600    33.3390 o          1 AA4      -0.826800
     10 H           -7.1840    22.9110    36.1450 hn         1 AA4       0.315300
     11 H2          -8.5200    22.0410    36.4300 hn         1 AA4       0.315300
     12 HA          -7.0570    21.9660    33.9270 h1         1 AA4       0.046700
     13 HB2         -6.1920    20.8320    36.4000 hc         1 AA4       0.026200
     14 HB3         -6.7690    19.4830    35.4750 hc         1 AA4       0.026200
     15 HG2         -4.6010    21.4770    34.6810 hc         1 AA4       0.014700
     16 HG3         -4.3970    19.7950    35.1240 hc         1 AA4       0.014700
     17 HD2         -5.5960    20.9490    32.5730 h1         1 AA4       0.007700
     18 HD3         -4.1600    19.9670    32.7520 h1         1 AA4       0.007700
     19 HE          -6.8410    19.1690    33.0820 ho         1 AA4       0.483000
@<TRIPOS>BOND
     1     1     2 1   
     2     1    10 1   
     3     1    11 1   
     4     2     3 1   
     5     2     5 1   
     6     2    12 1   
     7     3     4 1   
     8     3     9 1   
     9     5     6 1   
    10     5    13 1   
    11     5    14 1   
    12     6     7 1   
    13     6    15 1   
    14     6    16 1   
    15     7     8 1   
    16     7    17 1   
    17     7    18 1   
    18     8    19 1   
@<TRIPOS>SUBSTRUCTURE
     1 AA4         1 TEMP              0 ****  ****    0 ROOT
