@<TRIPOS>MOLECULE
AA4
   19    18     1     0     0
SMALL
No Charge or Current Charge


@<TRIPOS>ATOM
      1 N           -8.2220    22.0040    36.2110 n8         1 AA4      -0.862800
      2 CA          -7.4860    21.5720    34.9650 c3         1 AA4       0.012500
      3 C           -8.3650    20.8240    33.8660 c          1 AA4       0.937600
      4 O           -8.9460    21.4970    33.0200 o          1 AA4      -0.826800
      5 CB          -6.2150    20.7780    35.4010 c3         1 AA4      -0.087400
      6 CG          -5.0770    20.6530    34.3470 c3         1 AA4      -0.103400
      7 CD          -5.4070    19.9280    33.0200 c3         1 AA4       0.165400
      8 OE          -6.0260    18.6660    33.2730 oh         1 AA4      -0.666800
      9 OXT         -8.4080    19.5950    33.8710 o          1 AA4      -0.826800
     10 H           -7.5560    22.4130    36.8740 hn         1 AA4       0.315300
     11 H2          -8.5870    21.1750    36.6910 hn         1 AA4       0.315300
     12 HA          -7.1320    22.4950    34.4860 h1         1 AA4       0.046700
     13 HB2         -5.7760    21.2760    36.2750 hc         1 AA4       0.026200
     14 HB3         -6.5040    19.7790    35.7500 hc         1 AA4       0.026200
     15 HG2         -4.7090    21.6580    34.1060 hc         1 AA4       0.014700
     16 HG3         -4.2370    20.1290    34.8200 hc         1 AA4       0.014700
     17 HD2         -6.0690    20.5580    32.4140 h1         1 AA4       0.007700
     18 HD3         -4.4780    19.7870    32.4520 h1         1 AA4       0.007700
     19 HE          -6.9670    18.8880    33.5410 ho         1 AA4       0.483000
@<TRIPOS>BOND
     1     1     2 1   
     2     1    10 1   
     3     1    11 1   
     4     2     3 1   
     5     2     5 1   
     6     2    12 1   
     7     3     4 1   
     8     3     9 1   
     9     5     6 1   
    10     5    13 1   
    11     5    14 1   
    12     6     7 1   
    13     6    15 1   
    14     6    16 1   
    15     7     8 1   
    16     7    17 1   
    17     7    18 1   
    18     8    19 1   
@<TRIPOS>SUBSTRUCTURE
     1 AA4         1 TEMP              0 ****  ****    0 ROOT
