@<TRIPOS>MOLECULE
AA6
   33    33     1     0     0
SMALL
No Charge or Current Charge


@<TRIPOS>ATOM
      1 N           -8.4270    17.8830    31.9230 n7         1 AA6      -0.827400
      2 CA          -9.7450    17.5450    32.5750 c3         1 AA6       0.034500
      3 C           -9.6940    16.3720    33.6430 c          1 AA6       0.725000
      4 O           -9.9490    15.2260    33.2880 o          1 AA6      -0.724000
      5 CN          -7.7070    16.7770    31.2610 c3         1 AA6       0.161100
      6 CB         -10.8440    17.3210    31.4950 c3         1 AA6      -0.064100
      7 CG         -11.0430    18.5250    30.5630 ca         1 AA6      -0.101300
      8 CD1        -11.7740    19.6750    30.9600 ca         1 AA6       0.303000
      9 CD2        -10.4750    18.4820    29.2710 ca         1 AA6      -0.092000
     10 CE1        -11.9280    20.7520    30.0670 ca         1 AA6      -0.240000
     11 CE2        -10.6290    19.5620    28.3910 ca         1 AA6       0.070100
     12 CZ1        -11.3560    20.6990    28.7890 ca         1 AA6       0.056100
     13 OZ         -10.0790    19.5200    27.1430 oh         1 AA6      -0.545100
     14 OH1        -11.5120    21.7520    27.9300 oh         1 AA6      -0.568100
     15 NE         -12.3670    19.7500    32.2230 nu         1 AA6      -0.958200
     16 CZ2        -12.3570    20.9120    33.0650 c3         1 AA6       0.419800
     17 OH2        -13.6900    21.3060    33.0500 oh         1 AA6      -0.689000
     18 OXT         -9.4510    16.6630    34.8080 o          1 AA6      -0.724000
     19 HN          -8.6020    18.6130    31.2230 hn         1 AA6       0.371000
     20 HA         -10.0600    18.4270    33.1480 h1         1 AA6       0.043700
     21 HCN1        -6.7630    17.1400    30.8340 h1         1 AA6       0.014700
     22 HCN2        -7.4700    15.9780    31.9760 h1         1 AA6       0.014700
     23 HCN3        -8.3030    16.3480    30.4450 h1         1 AA6       0.014700
     24 HB1        -10.6000    16.4270    30.9090 hc         1 AA6       0.058700
     25 HB2        -11.7890    17.0760    31.9960 hc         1 AA6       0.058700
     26 HD2         -9.9120    17.6090    28.9490 ha         1 AA6       0.131000
     27 HE1        -12.4980    21.6260    30.3670 ha         1 AA6       0.095000
     28 HOZ        -10.3170    20.3740    26.7140 ho         1 AA6       0.465000
     29 HO1        -12.0460    22.4430    28.3790 ho         1 AA6       0.461000
     30 HNE        -12.3090    18.8760    32.7420 hn         1 AA6       0.495000
     31 HZ1        -12.0460    20.6710    34.0910 h2         1 AA6       0.051200
     32 HZ2        -11.7220    21.7090    32.6570 h2         1 AA6       0.051200
     33 HO2        -14.0240    20.7450    32.3210 ho         1 AA6       0.438000
@<TRIPOS>BOND
     1     1     2 1   
     2     1     5 1   
     3     1    19 1   
     4     2     3 1   
     5     2     6 1   
     6     2    20 1   
     7     3     4 1   
     8     3    18 1   
     9     5    21 1   
    10     5    22 1   
    11     5    23 1   
    12     6     7 1   
    13     6    24 1   
    14     6    25 1   
    15     7     8 ar  
    16     7     9 ar  
    17     8    10 ar  
    18     8    15 1   
    19     9    11 ar  
    20     9    26 1   
    21    10    12 ar  
    22    10    27 1   
    23    11    12 ar  
    24    11    13 1   
    25    12    14 1   
    26    13    28 1   
    27    14    29 1   
    28    15    16 1   
    29    15    30 1   
    30    16    17 1   
    31    16    31 1   
    32    16    32 1   
    33    17    33 1   
@<TRIPOS>SUBSTRUCTURE
     1 AA6         1 TEMP              0 ****  ****    0 ROOT
