@<TRIPOS>MOLECULE
AA6
   33    33     1     0     0
SMALL
bcc


@<TRIPOS>ATOM
      1 N           -8.2760    17.7810    31.8950 n7         1 AA6      -0.772200
      2 CA          -9.5390    17.5870    32.5840 c3         1 AA6       0.034500
      3 C           -9.4720    16.5000    33.6940 c          1 AA6       0.935600
      4 O          -10.5720    16.0730    34.1020 o          1 AA6      -0.829300
      5 CN          -7.8090    16.6650    31.1000 c3         1 AA6       0.161100
      6 CB         -10.7480    17.3830    31.6420 c3         1 AA6      -0.064100
      7 CG         -10.9650    18.5440    30.7120 ca         1 AA6      -0.101300
      8 CD1        -11.5670    19.7380    31.1470 ca         1 AA6       0.164600
      9 CD2        -10.5150    18.4690    29.3970 ca         1 AA6      -0.110000
     10 CE1        -11.6920    20.7980    30.2430 ca         1 AA6      -0.258000
     11 CE2        -10.6350    19.5150    28.4980 ca         1 AA6       0.070100
     12 CZ1        -11.2280    20.6960    28.9390 ca         1 AA6       0.056100
     13 OZ         -10.1760    19.3580    27.2280 oh         1 AA6      -0.506100
     14 OH1        -11.3240    21.7010    28.0340 oh         1 AA6      -0.529100
     15 NE         -11.9850    19.8670    32.4700 nu         1 AA6      -0.764600
     16 CZ2        -12.9310    20.8600    32.8770 c3         1 AA6       0.396600
     17 OH2        -14.2420    20.6940    32.3860 oh         1 AA6      -0.626800
     18 OXT         -8.3490    16.1820    34.1260 o          1 AA6      -0.829300
     19 HN          -8.3610    18.5930    31.2960 hn         1 AA6       0.315800
     20 HA          -9.7210    18.5250    33.1280 h1         1 AA6       0.043700
     21 HCN1        -6.8990    16.9580    30.5750 h1         1 AA6       0.014700
     22 HCN2        -7.5570    15.8260    31.7460 h1         1 AA6       0.014700
     23 HCN3        -8.5110    16.2960    30.3390 h1         1 AA6       0.014700
     24 HB1        -10.6080    16.4750    31.0490 hc         1 AA6       0.058700
     25 HB2        -11.6360    17.1900    32.2480 hc         1 AA6       0.058700
     26 HD2        -10.0550    17.5470    29.0560 ha         1 AA6       0.149000
     27 HE1        -12.1370    21.7390    30.5470 ha         1 AA6       0.113000
     28 HOZ        -10.3250    20.1640    26.7210 ho         1 AA6       0.426000
     29 HO1        -11.7410    22.4780    28.4220 ho         1 AA6       0.422000
     30 HNE        -12.1070    18.9870    32.9460 hn         1 AA6       0.439800
     31 HZ1        -13.0030    20.8030    33.9620 h2         1 AA6       0.051200
     32 HZ2        -12.5390    21.8520    32.6290 h2         1 AA6       0.051200
     33 HO2        -14.2630    20.9410    31.4560 ho         1 AA6       0.399000
@<TRIPOS>BOND
     1     1     2 1   
     2     1     5 1   
     3     1    19 1   
     4     2     3 1   
     5     2     6 1   
     6     2    20 1   
     7     3     4 1   
     8     3    18 1   
     9     5    21 1   
    10     5    22 1   
    11     5    23 1   
    12     6     7 1   
    13     6    24 1   
    14     6    25 1   
    15     7     8 ar  
    16     7     9 ar  
    17     8    10 ar  
    18     8    15 1   
    19     9    11 ar  
    20     9    26 1   
    21    10    12 ar  
    22    10    27 1   
    23    11    12 ar  
    24    11    13 1   
    25    12    14 1   
    26    13    28 1   
    27    14    29 1   
    28    15    16 1   
    29    15    30 1   
    30    16    17 1   
    31    16    31 1   
    32    16    32 1   
    33    17    33 1   
@<TRIPOS>SUBSTRUCTURE
     1 AA6         1 TEMP              0 ****  ****    0 ROOT
