@<TRIPOS>MOLECULE
AA7
   77    82     1     0     0
SMALL
No Charge or Current Charge


@<TRIPOS>ATOM
      1 C1          -8.2900    -0.9220     0.3370 ca         1 AA7       0.387800
      2 C2          -6.9610    -0.9500    -0.1350 ca         1 AA7      -0.123800
      3 C3          -6.2580    -2.2960    -0.4160 c6         1 AA7      -0.017600
      4 C4          -6.9610    -3.5170     0.2190 c6         1 AA7      -0.077900
      5 C5          -8.4810    -3.4600    -0.0170 c6         1 AA7      -0.074400
      6 C6          -9.0740    -2.2000     0.6510 c6         1 AA7      -0.132700
      7 N7          -8.9780     0.2180     0.5530 nb         1 AA7      -0.685000
      8 C8          -8.3840     1.4010     0.2940 ca         1 AA7       0.285000
      9 C9          -7.0570     1.4840    -0.1950 ca         1 AA7      -0.112500
     10 C10         -6.3350     0.2850    -0.4080 ca         1 AA7       0.284000
     11 N11         -5.0240     0.3240    -0.9050 nu         1 AA7      -0.919700
     12 C14         -6.4850     2.7570    -0.4480 ca         1 AA7      -0.100000
     13 C15         -7.2250     3.9280    -0.2220 ca         1 AA7      -0.109000
     14 C16         -8.5380     3.8450     0.2600 ca         1 AA7      -0.104000
     15 C17         -9.1090     2.5880     0.5150 ca         1 AA7      -0.082000
     16 C19          3.8660    -0.2350    -0.0390 c3         1 AA7       0.180300
     17 C20          2.5890    -0.1470    -0.8960 c3         1 AA7      -0.080400
     18 C21          1.3010    -0.0760    -0.0450 c3         1 AA7      -0.075400
     19 C22          0.0170     0.0140    -0.8990 c3         1 AA7      -0.073400
     20 C23         -1.2700     0.0860    -0.0470 c3         1 AA7      -0.075400
     21 C24         -2.5550     0.1760    -0.9000 c3         1 AA7      -0.080400
     22 C25         -3.8350     0.2440    -0.0450 c3         1 AA7       0.180300
     23 C26          8.3200     0.9220     0.3820 ca         1 AA7       0.387800
     24 C27          6.9930     0.9610    -0.0930 ca         1 AA7      -0.123800
     25 C28          6.2900     2.3120    -0.3460 c6         1 AA7      -0.017600
     26 C29          6.9910     3.5200     0.3180 c6         1 AA7      -0.077900
     27 C30          8.5120     3.4670     0.0860 c6         1 AA7      -0.074400
     28 C31          9.1030     2.1930     0.7270 c6         1 AA7      -0.132700
     29 N32          9.0070    -0.2220     0.5750 nb         1 AA7      -0.685000
     30 C33          8.4150    -1.3990     0.2880 ca         1 AA7       0.285000
     31 C34          7.0890    -1.4710    -0.2070 ca         1 AA7      -0.112500
     32 C35          6.3670    -0.2680    -0.3950 ca         1 AA7       0.284000
     33 N36          5.0580    -0.2960    -0.8970 nu         1 AA7      -0.919700
     34 C39          6.5180    -2.7380    -0.4900 ca         1 AA7      -0.100000
     35 C40          7.2570    -3.9140    -0.2870 ca         1 AA7      -0.109000
     36 C41          8.5680    -3.8420     0.2000 ca         1 AA7      -0.104000
     37 C42          9.1380    -2.5900     0.4850 ca         1 AA7      -0.082000
     38 H3C1        -6.2030    -2.4390    -1.5040 hc         1 AA7       0.054700
     39 H3C2        -5.2200    -2.2760    -0.0640 hc         1 AA7       0.054700
     40 H4C1        -6.5470    -4.4450    -0.2000 hc         1 AA7       0.041200
     41 H4C2        -6.7550    -3.5430     1.2980 hc         1 AA7       0.041200
     42 H5C1        -8.6900    -3.4460    -1.0960 hc         1 AA7       0.045700
     43 H5C2        -8.9630    -4.3610     0.3870 hc         1 AA7       0.045700
     44 H6C1       -10.1220    -2.0860     0.3430 hc         1 AA7       0.062200
     45 H6C2        -9.0890    -2.3400     1.7400 hc         1 AA7       0.062200
     46 H11         -4.9220     0.9980    -1.6630 hn         1 AA7       0.434000
     47 H14         -5.4670     2.8540    -0.8160 ha         1 AA7       0.105000
     48 H15         -6.7780     4.9000    -0.4180 ha         1 AA7       0.113500
     49 H16         -9.1130     4.7510     0.4370 ha         1 AA7       0.116000
     50 H17        -10.1270     2.5290     0.8900 ha         1 AA7       0.130500
     51 H191         3.9150     0.6380     0.6250 h1         1 AA7       0.037200
     52 H192         3.8200    -1.1310     0.5940 h1         1 AA7       0.037200
     53 H201         2.5360    -1.0210    -1.5570 hc         1 AA7       0.047450
     54 H202         2.6460     0.7410    -1.5370 hc         1 AA7       0.047450
     55 H211         1.3560     0.7970     0.6170 hc         1 AA7       0.038700
     56 H212         1.2450    -0.9630     0.5980 hc         1 AA7       0.038700
     57 H221        -0.0380    -0.8590    -1.5610 hc         1 AA7       0.040700
     58 H222         0.0730     0.9010    -1.5420 hc         1 AA7       0.040700
     59 H231        -1.3260    -0.8020     0.5960 hc         1 AA7       0.038700
     60 H232        -1.2160     0.9590     0.6150 hc         1 AA7       0.038700
     61 H241        -2.5000     1.0640    -1.5410 hc         1 AA7       0.047450
     62 H242        -2.6110    -0.6990    -1.5600 hc         1 AA7       0.047450
     63 H251        -3.8860    -0.6430     0.5990 h1         1 AA7       0.037200
     64 H252        -3.7910     1.1270     0.6080 h1         1 AA7       0.037200
     65 H282         5.2510     2.2850     0.0020 hc         1 AA7       0.054700
     66 H291         6.5780     4.4560    -0.0820 hc         1 AA7       0.041200
     67 H292         6.7820     3.5210     1.3970 hc         1 AA7       0.041200
     68 H301         8.7240     3.4770    -0.9930 hc         1 AA7       0.045700
     69 H302         8.9930     4.3600     0.5100 hc         1 AA7       0.045700
     70 H311        10.1520     2.0860     0.4190 hc         1 AA7       0.062200
     71 H312         9.1150     2.3090     1.8190 hc         1 AA7       0.062200
     72 H36          4.9580    -0.9530    -1.6700 hn         1 AA7       0.434000
     73 H39          5.5010    -2.8270    -0.8630 ha         1 AA7       0.105000
     74 H40          6.8110    -4.8820    -0.5070 ha         1 AA7       0.113500
     75 H41          9.1430    -4.7520     0.3580 ha         1 AA7       0.116000
     76 H42         10.1550    -2.5400     0.8630 ha         1 AA7       0.130500
     77 H281         6.2390     2.4800    -1.4310 hc         1 AA7       0.054700
@<TRIPOS>BOND
     1     1     2 ar  
     2     1     6 1   
     3     1     7 ar  
     4     2     3 1   
     5     2    10 ar  
     6     3     4 1   
     7     3    38 1   
     8     3    39 1   
     9     4     5 1   
    10     4    40 1   
    11     4    41 1   
    12     5     6 1   
    13     5    42 1   
    14     5    43 1   
    15     6    44 1   
    16     6    45 1   
    17     7     8 ar  
    18     8     9 ar  
    19     8    15 ar  
    20     9    10 ar  
    21     9    12 ar  
    22    10    11 1   
    23    11    22 1   
    24    11    46 1   
    25    12    13 ar  
    26    12    47 1   
    27    13    14 ar  
    28    13    48 1   
    29    14    15 ar  
    30    14    49 1   
    31    15    50 1   
    32    16    17 1   
    33    16    33 1   
    34    16    51 1   
    35    16    52 1   
    36    17    18 1   
    37    17    53 1   
    38    17    54 1   
    39    18    19 1   
    40    18    55 1   
    41    18    56 1   
    42    19    20 1   
    43    19    57 1   
    44    19    58 1   
    45    20    21 1   
    46    20    59 1   
    47    20    60 1   
    48    21    22 1   
    49    21    61 1   
    50    21    62 1   
    51    22    63 1   
    52    22    64 1   
    53    23    24 ar  
    54    23    28 1   
    55    23    29 ar  
    56    24    25 1   
    57    24    32 ar  
    58    25    26 1   
    59    25    65 1   
    60    25    77 1   
    61    26    27 1   
    62    26    66 1   
    63    26    67 1   
    64    27    28 1   
    65    27    68 1   
    66    27    69 1   
    67    28    70 1   
    68    28    71 1   
    69    29    30 ar  
    70    30    31 ar  
    71    30    37 ar  
    72    31    32 ar  
    73    31    34 ar  
    74    32    33 1   
    75    33    72 1   
    76    34    35 ar  
    77    34    73 1   
    78    35    36 ar  
    79    35    74 1   
    80    36    37 ar  
    81    36    75 1   
    82    37    76 1   
@<TRIPOS>SUBSTRUCTURE
     1 AA7         1 TEMP              0 ****  ****    0 ROOT
