@<TRIPOS>MOLECULE
AA7
   77    82     1     0     0
SMALL
abcg2


@<TRIPOS>ATOM
      1 C1          -7.9800    -0.9180     0.3800 ca         1 AA7       0.387800
      2 C2          -6.6990    -0.7900    -0.2190 ca         1 AA7      -0.123800
      3 C3          -5.9720    -1.9930    -0.7670 c6         1 AA7      -0.017600
      4 C4          -6.5150    -3.3240    -0.2660 c6         1 AA7      -0.077900
      5 C5          -8.0330    -3.3450    -0.3300 c6         1 AA7      -0.074400
      6 C6          -8.5940    -2.2770     0.5950 c6         1 AA7      -0.132700
      7 N7          -8.7030     0.1040     0.7710 nb         1 AA7      -0.685000
      8 C8          -8.2140     1.3520     0.6180 ca         1 AA7       0.285000
      9 C9          -6.9420     1.6040     0.0510 ca         1 AA7      -0.112500
     10 C10         -6.1840     0.4820    -0.3900 ca         1 AA7       0.284000
     11 N11         -4.9450     0.6500    -1.0200 nu         1 AA7      -0.919700
     12 C14         -6.4870     2.9400    -0.0380 ca         1 AA7      -0.100000
     13 C15         -7.2700     3.9770     0.3940 ca         1 AA7      -0.109000
     14 C16         -8.5470     3.7260     0.9360 ca         1 AA7      -0.104000
     15 C17         -9.0070     2.4420     1.0490 ca         1 AA7      -0.082000
     16 C19          3.7810    -0.4220    -0.1870 c3         1 AA7       0.180300
     17 C20          2.5420    -0.2890    -1.0530 c3         1 AA7      -0.080400
     18 C21          1.2750    -0.1350    -0.2220 c3         1 AA7      -0.075400
     19 C22          0.0170     0.0160    -1.0660 c3         1 AA7      -0.073400
     20 C23         -1.2460     0.1550    -0.2250 c3         1 AA7      -0.075400
     21 C24         -2.5090     0.3130    -1.0600 c3         1 AA7      -0.080400
     22 C25         -3.7520     0.4400    -0.1980 c3         1 AA7       0.180300
     23 C26          8.0090     0.9180     0.4240 ca         1 AA7       0.387800
     24 C27          6.7270     0.8000    -0.1760 ca         1 AA7      -0.123800
     25 C28          5.9980     2.0150    -0.6980 c6         1 AA7      -0.017600
     26 C29          6.5390     3.3370    -0.1700 c6         1 AA7      -0.077900
     27 C30          8.0560     3.3620    -0.2290 c6         1 AA7      -0.074400
     28 C31          8.6200     2.2730     0.6700 c6         1 AA7      -0.132700
     29 N32          8.7350    -0.1110     0.7910 nb         1 AA7      -0.685000
     30 C33          8.2490    -1.3560     0.6090 ca         1 AA7       0.285000
     31 C34          6.9770    -1.5980     0.0380 ca         1 AA7      -0.112500
     32 C35          6.2150    -0.4680    -0.3760 ca         1 AA7       0.284000
     33 N36          4.9760    -0.6270    -1.0070 nu         1 AA7      -0.919700
     34 C39          6.5270    -2.9340    -0.0830 ca         1 AA7      -0.100000
     35 C40          7.3140    -3.9780     0.3230 ca         1 AA7      -0.109000
     36 C41          8.5900    -3.7360     0.8700 ca         1 AA7      -0.104000
     37 C42          9.0460    -2.4540     1.0130 ca         1 AA7      -0.082000
     38 H3C1        -6.0470    -1.9570    -1.8600 hc         1 AA7       0.054700
     39 H3C2        -4.9060    -1.9370    -0.5510 hc         1 AA7       0.054700
     40 H4C1        -6.0850    -4.1340    -0.8580 hc         1 AA7       0.041200
     41 H4C2        -6.1960    -3.4910     0.7680 hc         1 AA7       0.041200
     42 H5C1        -8.3630    -3.1660    -1.3580 hc         1 AA7       0.045700
     43 H5C2        -8.4220    -4.3230    -0.0410 hc         1 AA7       0.045700
     44 H6C1        -9.6770    -2.1880     0.4920 hc         1 AA7       0.062200
     45 H6C2        -8.4100    -2.5710     1.6340 hc         1 AA7       0.062200
     46 H11         -4.8820     1.5500    -1.4770 hn         1 AA7       0.434000
     47 H14         -5.5060     3.1620    -0.4380 ha         1 AA7       0.105000
     48 H15         -6.9070     4.9930     0.3230 ha         1 AA7       0.113500
     49 H16         -9.1600     4.5540     1.2690 ha         1 AA7       0.116000
     50 H17         -9.9800     2.2300     1.4720 ha         1 AA7       0.130500
     51 H191         3.9070     0.4820     0.4110 h1         1 AA7       0.037200
     52 H192         3.6490    -1.2440     0.5300 h1         1 AA7       0.037200
     53 H201         2.4490    -1.1710    -1.6980 hc         1 AA7       0.047450
     54 H202         2.6620     0.5710    -1.7200 hc         1 AA7       0.047450
     55 H211         1.3760     0.7360     0.4360 hc         1 AA7       0.038700
     56 H212         1.1650    -1.0020     0.4390 hc         1 AA7       0.038700
     57 H221        -0.0830    -0.8500    -1.7310 hc         1 AA7       0.040700
     58 H222         0.1190     0.8890    -1.7190 hc         1 AA7       0.040700
     59 H231        -1.3460    -0.7220     0.4240 hc         1 AA7       0.038700
     60 H232        -1.1400     1.0160     0.4440 hc         1 AA7       0.038700
     61 H241        -2.4160     1.1990    -1.6990 hc         1 AA7       0.047450
     62 H242        -2.6260    -0.5430    -1.7320 hc         1 AA7       0.047450
     63 H251        -3.8800    -0.4690     0.3930 h1         1 AA7       0.037200
     64 H252        -3.6220     1.2550     0.5270 h1         1 AA7       0.037200
     65 H282         4.9330     1.9530    -0.4820 hc         1 AA7       0.054700
     66 H291         6.1110     4.1560    -0.7510 hc         1 AA7       0.041200
     67 H292         6.2160     3.4860     0.8650 hc         1 AA7       0.041200
     68 H301         8.3890     3.2090    -1.2610 hc         1 AA7       0.045700
     69 H302         8.4430     4.3340     0.0850 hc         1 AA7       0.045700
     70 H311         9.7030     2.1890     0.5660 hc         1 AA7       0.062200
     71 H312         8.4350     2.5420     1.7160 hc         1 AA7       0.062200
     72 H36          4.9120    -1.5220    -1.4730 hn         1 AA7       0.434000
     73 H39          5.5460    -3.1500    -0.4880 ha         1 AA7       0.105000
     74 H40          6.9540    -4.9930     0.2280 ha         1 AA7       0.113500
     75 H41          9.2060    -4.5690     1.1820 ha         1 AA7       0.116000
     76 H42         10.0200    -2.2490     1.4400 ha         1 AA7       0.130500
     77 H281         6.0730     2.0020    -1.7910 hc         1 AA7       0.054700
@<TRIPOS>BOND
     1     1     2 ar  
     2     1     6 1   
     3     1     7 ar  
     4     2     3 1   
     5     2    10 ar  
     6     3     4 1   
     7     3    38 1   
     8     3    39 1   
     9     4     5 1   
    10     4    40 1   
    11     4    41 1   
    12     5     6 1   
    13     5    42 1   
    14     5    43 1   
    15     6    44 1   
    16     6    45 1   
    17     7     8 ar  
    18     8     9 ar  
    19     8    15 ar  
    20     9    10 ar  
    21     9    12 ar  
    22    10    11 1   
    23    11    22 1   
    24    11    46 1   
    25    12    13 ar  
    26    12    47 1   
    27    13    14 ar  
    28    13    48 1   
    29    14    15 ar  
    30    14    49 1   
    31    15    50 1   
    32    16    17 1   
    33    16    33 1   
    34    16    51 1   
    35    16    52 1   
    36    17    18 1   
    37    17    53 1   
    38    17    54 1   
    39    18    19 1   
    40    18    55 1   
    41    18    56 1   
    42    19    20 1   
    43    19    57 1   
    44    19    58 1   
    45    20    21 1   
    46    20    59 1   
    47    20    60 1   
    48    21    22 1   
    49    21    61 1   
    50    21    62 1   
    51    22    63 1   
    52    22    64 1   
    53    23    24 ar  
    54    23    28 1   
    55    23    29 ar  
    56    24    25 1   
    57    24    32 ar  
    58    25    26 1   
    59    25    65 1   
    60    25    77 1   
    61    26    27 1   
    62    26    66 1   
    63    26    67 1   
    64    27    28 1   
    65    27    68 1   
    66    27    69 1   
    67    28    70 1   
    68    28    71 1   
    69    29    30 ar  
    70    30    31 ar  
    71    30    37 ar  
    72    31    32 ar  
    73    31    34 ar  
    74    32    33 1   
    75    33    72 1   
    76    34    35 ar  
    77    34    73 1   
    78    35    36 ar  
    79    35    74 1   
    80    36    37 ar  
    81    36    75 1   
    82    37    76 1   
@<TRIPOS>SUBSTRUCTURE
     1 AA7         1 TEMP              0 ****  ****    0 ROOT
