@<TRIPOS>MOLECULE
AA8
   84    83     1     0     0
SMALL
bcc


@<TRIPOS>ATOM
      1 O6          -6.9550    -3.4000     2.5630 o          1 AA8      -0.838300
      2 C24         -7.9030    -2.5870     2.5730 c          1 AA8       0.909800
      3 O5          -8.9590    -2.7050     3.2350 o          1 AA8      -0.838300
      4 C23         -7.8210    -1.3340     1.7380 ce         1 AA8      -0.191200
      5 C22         -6.9590    -1.0070     0.7660 c2         1 AA8      -0.167400
      6 C31         -5.8220    -1.8560     0.2790 c3         1 AA8      -0.033900
      7 C21         -7.1200     0.3090     0.0510 c3         1 AA8      -0.029200
      8 C20         -5.9200     1.2590     0.1900 c3         1 AA8      -0.091700
      9 C30         -5.6390     1.5730     1.6580 c3         1 AA8      -0.091100
     10 C19         -6.1610     2.5140    -0.6680 c3         1 AA8       0.153100
     11 O4          -7.2860     3.2410    -0.2310 oh         1 AA8      -0.594800
     12 C18         -4.9270     3.4340    -0.7890 c3         1 AA8      -0.200700
     13 C29         -5.2070     4.6450    -1.6800 c3         1 AA8      -0.075100
     14 C17         -3.7630     2.6390    -1.3530 c          1 AA8       0.586100
     15 O3          -3.7970     2.2010    -2.4810 o          1 AA8      -0.519100
     16 C16         -2.5630     2.4470    -0.4460 c3         1 AA8      -0.124500
     17 C28         -1.8270     3.7940    -0.3310 c3         1 AA8      -0.082100
     18 C15         -1.6390     1.3820    -0.9360 c2         1 AA8      -0.158200
     19 C14         -1.3930     0.1910    -0.3700 ce         1 AA8      -0.056200
     20 C27         -2.0670    -0.3180     0.8700 c3         1 AA8      -0.063900
     21 C13         -0.3900    -0.6750    -0.9910 ce         1 AA8      -0.133000
     22 C12         -0.0200    -1.8870    -0.5660 c2         1 AA8      -0.157200
     23 C11          1.0450    -2.7020    -1.2260 c3         1 AA8      -0.038200
     24 C10          2.3000    -2.8890    -0.3460 c3         1 AA8      -0.022500
     25 C26          1.9980    -3.6950     0.9180 c3         1 AA8      -0.083100
     26 C9           3.3580    -3.5840    -1.1480 c2         1 AA8      -0.162200
     27 C8           4.6010    -3.1700    -1.4440 ce         1 AA8      -0.074200
     28 C25          5.5000    -4.0340    -2.2830 c3         1 AA8      -0.051900
     29 C7           5.1370    -1.8920    -0.9780 ce         1 AA8      -0.131000
     30 C6           6.3550    -1.4200    -1.2550 c2         1 AA8      -0.181200
     31 C5           6.8820    -0.1120    -0.7420 c3         1 AA8       0.171300
     32 O2           7.1700     0.7700    -1.8160 oh         1 AA8      -0.589800
     33 C4           8.0930    -0.3330     0.1630 c3         1 AA8      -0.108400
     34 C3           8.6850     0.9480     0.7410 c3         1 AA8      -0.052400
     35 C2           9.8760     0.6680     1.6430 c3         1 AA8      -0.205400
     36 C1          10.5450     1.8980     2.2810 c          1 AA8       0.927600
     37 O1           9.9910     3.0050     2.1330 o          1 AA8      -0.848800
     38 O7          11.6020     1.6800     2.9110 o          1 AA8      -0.848800
     39 H2          -8.6020    -0.6070     1.9500 ha         1 AA8       0.090000
     40 H3          -4.8710    -1.5160     0.6990 hc         1 AA8       0.029700
     41 H4          -5.9390    -2.8980     0.5530 hc         1 AA8       0.029700
     42 H5          -5.7260    -1.7750    -0.8060 hc         1 AA8       0.029700
     43 H6          -7.2780     0.1130    -1.0160 hc         1 AA8       0.034200
     44 H7          -8.0160     0.8160     0.4160 hc         1 AA8       0.034200
     45 H8          -5.0420     0.7480    -0.2250 hc         1 AA8       0.055700
     46 H9          -6.5240     1.9640     2.1650 hc         1 AA8       0.033367
     47 H10         -5.3460     0.6700     2.1950 hc         1 AA8       0.033367
     48 H11         -4.8340     2.2980     1.7920 hc         1 AA8       0.033367
     49 H12         -6.4100     2.1760    -1.6800 h1         1 AA8       0.081700
     50 H13         -7.1030     3.5960     0.6460 ho         1 AA8       0.396000
     51 H14         -4.6590     3.7940     0.2090 hc         1 AA8       0.054700
     52 H15         -6.0150     5.2460    -1.2690 hc         1 AA8       0.037700
     53 H16         -4.3270     5.2850    -1.7570 hc         1 AA8       0.037700
     54 H17         -5.4890     4.3370    -2.6870 hc         1 AA8       0.037700
     55 H18         -2.9450     2.2100     0.5500 hc         1 AA8       0.075700
     56 H19         -1.4490     4.1220    -1.3000 hc         1 AA8       0.037700
     57 H20         -2.4740     4.5770     0.0660 hc         1 AA8       0.037700
     58 H21         -0.9800     3.6930     0.3470 hc         1 AA8       0.037700
     59 H22         -1.0890     1.6310    -1.8400 ha         1 AA8       0.124000
     60 H23         -2.5430    -1.2810     0.6800 hc         1 AA8       0.048033
     61 H24         -1.3410    -0.4810     1.6690 hc         1 AA8       0.048033
     62 H25         -2.8330     0.3530     1.2530 hc         1 AA8       0.048033
     63 H26          0.0950    -0.2720    -1.8770 ha         1 AA8       0.116000
     64 H27         -0.4920    -2.3180     0.3120 ha         1 AA8       0.126000
     65 H28          0.6530    -3.6920    -1.4880 hc         1 AA8       0.044200
     66 H29          1.3400    -2.2220    -2.1630 hc         1 AA8       0.044200
     67 H30          2.6350    -1.8950    -0.0450 hc         1 AA8       0.059700
     68 H31          2.8900    -3.7920     1.5360 hc         1 AA8       0.034033
     69 H32          1.2270    -3.2200     1.5260 hc         1 AA8       0.034033
     70 H33          1.6520    -4.7010     0.6690 hc         1 AA8       0.034033
     71 H34          3.0530    -4.5550    -1.5350 ha         1 AA8       0.108000
     72 H36          5.8030    -3.5210    -3.1990 hc         1 AA8       0.035700
     73 H37          6.4170    -4.2960    -1.7510 hc         1 AA8       0.035700
     74 H38          5.0020    -4.9590    -2.5690 hc         1 AA8       0.035700
     75 H39          4.4930    -1.2820    -0.3530 ha         1 AA8       0.127000
     76 H40          7.0430    -1.9920    -1.8740 ha         1 AA8       0.109000
     77 H42          6.0980     0.3850    -0.1600 h1         1 AA8       0.074700
     78 H43          7.9500     0.4390    -2.2740 ho         1 AA8       0.393000
     79 H44          7.7890    -0.9980     0.9780 hc         1 AA8       0.030200
     80 H45          8.8630    -0.8800    -0.3960 hc         1 AA8       0.030200
     81 H46          8.9870     1.6130    -0.0710 hc         1 AA8       0.046200
     82 H47          9.5710    -0.0060     2.4540 hc         1 AA8       0.012700
     83 H35          7.9130     1.4840     1.3010 hc         1 AA8       0.046200
     84 H41         10.6360     0.1080     1.0860 hc         1 AA8       0.012700
@<TRIPOS>BOND
     1     1     2 1   
     2     2     3 1   
     3     2     4 1   
     4     4     5 2   
     5     4    39 1   
     6     5     6 1   
     7     5     7 1   
     8     6    40 1   
     9     6    41 1   
    10     6    42 1   
    11     7     8 1   
    12     7    43 1   
    13     7    44 1   
    14     8     9 1   
    15     8    10 1   
    16     8    45 1   
    17     9    46 1   
    18     9    47 1   
    19     9    48 1   
    20    10    11 1   
    21    10    12 1   
    22    10    49 1   
    23    11    50 1   
    24    12    13 1   
    25    12    14 1   
    26    12    51 1   
    27    13    52 1   
    28    13    53 1   
    29    13    54 1   
    30    14    15 2   
    31    14    16 1   
    32    16    17 1   
    33    16    18 1   
    34    16    55 1   
    35    17    56 1   
    36    17    57 1   
    37    17    58 1   
    38    18    19 2   
    39    18    59 1   
    40    19    20 1   
    41    19    21 1   
    42    20    60 1   
    43    20    61 1   
    44    20    62 1   
    45    21    22 2   
    46    21    63 1   
    47    22    23 1   
    48    22    64 1   
    49    23    24 1   
    50    23    65 1   
    51    23    66 1   
    52    24    25 1   
    53    24    26 1   
    54    24    67 1   
    55    25    68 1   
    56    25    69 1   
    57    25    70 1   
    58    26    27 2   
    59    26    71 1   
    60    27    28 1   
    61    27    29 1   
    62    28    72 1   
    63    28    73 1   
    64    28    74 1   
    65    29    30 2   
    66    29    75 1   
    67    30    31 1   
    68    30    76 1   
    69    31    32 1   
    70    31    33 1   
    71    31    77 1   
    72    32    78 1   
    73    33    34 1   
    74    33    79 1   
    75    33    80 1   
    76    34    35 1   
    77    34    81 1   
    78    34    83 1   
    79    35    36 1   
    80    35    82 1   
    81    35    84 1   
    82    36    37 1   
    83    36    38 1   
@<TRIPOS>SUBSTRUCTURE
     1 AA8         1 TEMP              0 ****  ****    0 ROOT
