@<TRIPOS>MOLECULE
AA8
   84    83     1     0     0
SMALL
No Charge or Current Charge


@<TRIPOS>ATOM
      1 O6          -4.1960    -4.3380    -0.7240 o          1 AA8      -0.733000
      2 C24         -5.3430    -4.0100    -0.4680 c          1 AA8       0.699200
      3 O5          -6.1240    -4.7450     0.1150 o          1 AA8      -0.733000
      4 C23         -5.8600    -2.6580    -0.8690 ce         1 AA8      -0.241200
      5 C22         -5.2160    -1.6510    -1.5250 c2         1 AA8      -0.167400
      6 C31         -3.7700    -1.6900    -2.0090 c3         1 AA8      -0.033900
      7 C21         -5.9110    -0.3260    -1.8320 c3         1 AA8      -0.029200
      8 C20         -5.4100     0.8700    -0.9700 c3         1 AA8      -0.091700
      9 C30         -5.6020     0.5990     0.5490 c3         1 AA8      -0.091100
     10 C19         -6.0250     2.2270    -1.4570 c3         1 AA8       0.176300
     11 O4          -7.4350     2.2250    -1.2070 oh         1 AA8      -0.657000
     12 C18         -5.4030     3.5060    -0.8220 c3         1 AA8      -0.200700
     13 C29         -6.0310     4.8210    -1.3560 c3         1 AA8      -0.075100
     14 C17         -3.8740     3.5260    -1.0450 c          1 AA8       0.586100
     15 O3          -3.4040     3.6230    -2.1740 o          1 AA8      -0.519100
     16 C16         -2.9550     3.3680     0.1950 c3         1 AA8      -0.124500
     17 C28         -2.0460     4.6030     0.3770 c3         1 AA8      -0.082100
     18 C15         -2.1300     2.0850     0.1160 c2         1 AA8      -0.208200
     19 C14         -1.8470     1.2060     1.1070 ce         1 AA8      -0.056200
     20 C27         -2.2710     1.4200     2.5570 c3         1 AA8      -0.063900
     21 C13         -1.0400     0.0100     0.7980 ce         1 AA8      -0.183000
     22 C12         -0.8290    -1.0440     1.6190 c2         1 AA8      -0.207200
     23 C11          0.0020    -2.2640     1.2730 c3         1 AA8      -0.038200
     24 C10          1.5280    -2.0230     1.4050 c3         1 AA8      -0.022500
     25 C26          1.9360    -1.6700     2.8550 c3         1 AA8      -0.083100
     26 C9           2.3190    -3.2250     0.9040 c2         1 AA8      -0.212200
     27 C8           3.5840    -3.2540     0.4160 ce         1 AA8      -0.074200
     28 C25          4.1970    -4.5750    -0.0330 c3         1 AA8      -0.051900
     29 C7           4.4280    -2.0430     0.3070 ce         1 AA8      -0.181000
     30 C6           5.6880    -1.9960    -0.1870 c2         1 AA8      -0.231200
     31 C5           6.5400    -0.7490    -0.2810 c3         1 AA8       0.194500
     32 O2           5.9910     0.0830    -1.3010 oh         1 AA8      -0.652000
     33 C4           8.0210    -1.0660    -0.6040 c3         1 AA8      -0.108400
     34 C3           8.9540     0.1690    -0.5710 c3         1 AA8      -0.052400
     35 C2          10.4370    -0.1810    -0.8470 c3         1 AA8      -0.205400
     36 C1          11.3020     1.0920    -0.7960 c          1 AA8       0.717000
     37 O1          11.7650     1.4320     0.2820 o          1 AA8      -0.743500
     38 O7          11.4470     1.7320    -1.8270 o          1 AA8      -0.743500
     39 H2          -6.8940    -2.5000    -0.5710 ha         1 AA8       0.140000
     40 H3          -3.0740    -1.6930    -1.1610 hc         1 AA8       0.029700
     41 H4          -3.5760    -2.5840    -2.6130 hc         1 AA8       0.029700
     42 H5          -3.5150    -0.8270    -2.6360 hc         1 AA8       0.029700
     43 H6          -5.7790    -0.0820    -2.8940 hc         1 AA8       0.034200
     44 H7          -6.9940    -0.4330    -1.6920 hc         1 AA8       0.034200
     45 H8          -4.3310     0.9300    -1.1420 hc         1 AA8       0.055700
     46 H9          -6.6590     0.4460     0.7960 hc         1 AA8       0.033367
     47 H10         -5.0510    -0.2990     0.8550 hc         1 AA8       0.033367
     48 H11         -5.2220     1.4260     1.1580 hc         1 AA8       0.033367
     49 H12         -5.8500     2.2920    -2.5420 h1         1 AA8       0.081700
     50 H13         -7.5490     2.0530    -0.2500 ho         1 AA8       0.435000
     51 H14         -5.6030     3.4790     0.2550 hc         1 AA8       0.054700
     52 H15         -7.0970     4.8830    -1.1070 hc         1 AA8       0.037700
     53 H16         -5.5350     5.6920    -0.9110 hc         1 AA8       0.037700
     54 H17         -5.9300     4.8900    -2.4460 hc         1 AA8       0.037700
     55 H18         -3.6070     3.3230     1.0730 hc         1 AA8       0.075700
     56 H19         -1.3620     4.7140    -0.4740 hc         1 AA8       0.037700
     57 H20         -2.6470     5.5170     0.4570 hc         1 AA8       0.037700
     58 H21         -1.4440     4.5080     1.2890 hc         1 AA8       0.037700
     59 H22         -1.7620     1.8790    -0.8910 ha         1 AA8       0.174000
     60 H23         -3.1890     0.8650     2.7850 hc         1 AA8       0.048033
     61 H24         -1.4970     1.0920     3.2590 hc         1 AA8       0.048033
     62 H25         -2.4520     2.4750     2.7890 hc         1 AA8       0.048033
     63 H26         -0.5920    -0.0130    -0.1970 ha         1 AA8       0.166000
     64 H27         -1.2690    -1.0870     2.6160 ha         1 AA8       0.176000
     65 H28         -0.2890    -3.1050     1.9160 hc         1 AA8       0.044200
     66 H29         -0.2200    -2.5750     0.2450 hc         1 AA8       0.044200
     67 H30          1.7580    -1.1570     0.7730 hc         1 AA8       0.059700
     68 H31          3.0160    -1.4990     2.9240 hc         1 AA8       0.034033
     69 H32          1.4300    -0.7590     3.1950 hc         1 AA8       0.034033
     70 H33          1.6760    -2.4850     3.5410 hc         1 AA8       0.034033
     71 H34          1.7590    -4.1590     0.9680 ha         1 AA8       0.158000
     72 H36          4.4520    -4.5510    -1.0990 hc         1 AA8       0.035700
     73 H37          5.1110    -4.8000     0.5280 hc         1 AA8       0.035700
     74 H38          3.5130    -5.4190     0.1150 hc         1 AA8       0.035700
     75 H39          3.9870    -1.1120     0.6630 ha         1 AA8       0.177000
     76 H40          6.1820    -2.8950    -0.5550 ha         1 AA8       0.159000
     77 H42          6.5070    -0.2290     0.6890 h1         1 AA8       0.074700
     78 H43          5.8040    -0.5070    -2.0610 ho         1 AA8       0.432000
     79 H44          8.3860    -1.7970     0.1290 hc         1 AA8       0.030200
     80 H45          8.0870    -1.5470    -1.5880 hc         1 AA8       0.030200
     81 H46          8.6160     0.9020    -1.3140 hc         1 AA8       0.046200
     82 H47         10.7330    -0.8780    -0.0530 hc         1 AA8       0.012700
     83 H35          8.8740     0.6530     0.4110 hc         1 AA8       0.046200
     84 H41         10.4590    -0.6210    -1.8520 hc         1 AA8       0.012700
@<TRIPOS>BOND
     1     1     2 1   
     2     2     3 1   
     3     2     4 1   
     4     4     5 2   
     5     4    39 1   
     6     5     6 1   
     7     5     7 1   
     8     6    40 1   
     9     6    41 1   
    10     6    42 1   
    11     7     8 1   
    12     7    43 1   
    13     7    44 1   
    14     8     9 1   
    15     8    10 1   
    16     8    45 1   
    17     9    46 1   
    18     9    47 1   
    19     9    48 1   
    20    10    11 1   
    21    10    12 1   
    22    10    49 1   
    23    11    50 1   
    24    12    13 1   
    25    12    14 1   
    26    12    51 1   
    27    13    52 1   
    28    13    53 1   
    29    13    54 1   
    30    14    15 2   
    31    14    16 1   
    32    16    17 1   
    33    16    18 1   
    34    16    55 1   
    35    17    56 1   
    36    17    57 1   
    37    17    58 1   
    38    18    19 2   
    39    18    59 1   
    40    19    20 1   
    41    19    21 1   
    42    20    60 1   
    43    20    61 1   
    44    20    62 1   
    45    21    22 2   
    46    21    63 1   
    47    22    23 1   
    48    22    64 1   
    49    23    24 1   
    50    23    65 1   
    51    23    66 1   
    52    24    25 1   
    53    24    26 1   
    54    24    67 1   
    55    25    68 1   
    56    25    69 1   
    57    25    70 1   
    58    26    27 2   
    59    26    71 1   
    60    27    28 1   
    61    27    29 1   
    62    28    72 1   
    63    28    73 1   
    64    28    74 1   
    65    29    30 2   
    66    29    75 1   
    67    30    31 1   
    68    30    76 1   
    69    31    32 1   
    70    31    33 1   
    71    31    77 1   
    72    32    78 1   
    73    33    34 1   
    74    33    79 1   
    75    33    80 1   
    76    34    35 1   
    77    34    81 1   
    78    34    83 1   
    79    35    36 1   
    80    35    82 1   
    81    35    84 1   
    82    36    37 1   
    83    36    38 1   
@<TRIPOS>SUBSTRUCTURE
     1 AA8         1 TEMP              0 ****  ****    0 ROOT
