@<TRIPOS>MOLECULE
AA9
   93    96     1     0     0
SMALL
No Charge or Current Charge


@<TRIPOS>ATOM
      1 C1          -5.5410     0.7840    -4.8760 c3         1 AA9      -0.107100
      2 C2          -4.4070     0.5040    -3.8790 c3         1 AA9       0.215800
      3 N3          -4.7410     1.0560    -2.5570 nu         1 AA9      -0.961200
      4 C4          -3.9960     0.9290    -1.3840 ca         1 AA9       0.324000
      5 C5          -4.6120     1.1980    -0.1580 ca         1 AA9      -0.185000
      6 C6          -3.8970     1.0690     1.0420 ca         1 AA9       0.297000
      7 C7          -2.5570     0.6450     1.0060 ca         1 AA9      -0.079000
      8 C8          -1.9080     0.3800    -0.2190 ca         1 AA9      -0.096600
      9 C9          -2.6490     0.5300    -1.4170 ca         1 AA9      -0.163000
     10 C10         -0.4660    -0.0830    -0.2180 c          1 AA9       0.622700
     11 O11          0.1090    -0.4430     0.8010 o          1 AA9      -0.598100
     12 N12          0.1550    -0.1160    -1.4460 ns         1 AA9      -0.492900
     13 C13          1.4770    -0.6960    -1.7220 c3         1 AA9       0.085700
     14 C14          1.5920    -1.0260    -3.2390 c3         1 AA9      -0.048100
     15 C15          0.3160    -1.6420    -3.8120 ca         1 AA9      -0.078300
     16 C16         -0.4640    -0.9280    -4.7450 ca         1 AA9      -0.105500
     17 C17         -1.6560    -1.4810    -5.2450 ca         1 AA9      -0.107000
     18 C18         -2.0770    -2.7500    -4.8150 ca         1 AA9      -0.105000
     19 C19         -1.3030    -3.4680    -3.8880 ca         1 AA9      -0.107000
     20 C20         -0.1100    -2.9170    -3.3890 ca         1 AA9      -0.105500
     21 C21          2.6410     0.1830    -1.1560 c3         1 AA9       0.142300
     22 O22          2.6150     1.5130    -1.7300 oh         1 AA9      -0.653000
     23 C23          4.0450    -0.4600    -1.3510 c3         1 AA9       0.136800
     24 N24          5.0960     0.3460    -0.6860 n7         1 AA9      -0.854400
     25 C25          6.5150    -0.1230    -0.8080 c3         1 AA9       0.099500
     26 C26          6.9970    -0.0150    -2.2740 c3         1 AA9      -0.131100
     27 C27          7.4960     0.6440     0.1510 c          1 AA9       0.604100
     28 O28          7.7070     1.8500     0.0670 o          1 AA9      -0.597100
     29 N29          8.1080    -0.1350     1.1130 ns         1 AA9      -0.502900
     30 C30          9.0790     0.3400     2.1060 c6         1 AA9       0.111700
     31 C31          9.0950    -0.6120     3.3300 c6         1 AA9      -0.089900
     32 C32         10.1360    -0.1590     4.3850 c6         1 AA9      -0.071900
     33 C33         11.5510    -0.0540     3.7640 c6         1 AA9      -0.077400
     34 C34         11.5490     0.8760     2.5270 c6         1 AA9      -0.071900
     35 C35         10.4990     0.4190     1.4840 c6         1 AA9      -0.089900
     36 N36         -4.5430     1.3140     2.2660 nh         1 AA9      -0.832100
     37 C37         -5.7650     0.6410     2.5520 ca         1 AA9       0.275000
     38 C38         -6.9150     1.2630     3.0990 ca         1 AA9      -0.095500
     39 C39         -8.0910     0.5290     3.3370 ca         1 AA9      -0.102000
     40 C40         -8.1450    -0.8390     3.0320 ca         1 AA9      -0.101000
     41 C41         -7.0200    -1.4720     2.4870 ca         1 AA9      -0.102000
     42 C42         -5.8460    -0.7360     2.2490 ca         1 AA9      -0.095500
     43 S43         -4.1100     2.7910     3.0680 s6         1 AA9       1.235100
     44 C44         -4.9340     4.0660     2.1260 c3         1 AA9      -0.374100
     45 O45         -4.6820     2.7470     4.4170 o          1 AA9      -0.525500
     46 O46         -2.6650     2.9660     2.8980 o          1 AA9      -0.525500
     47 H11C        -5.2860     0.3710    -5.8590 hc         1 AA9       0.043700
     48 H12C        -6.4770     0.3200    -4.5430 hc         1 AA9       0.043700
     49 H13C        -5.7030     1.8620    -4.9890 hc         1 AA9       0.043700
     50 H21C        -4.2540    -0.5820    -3.8040 h1         1 AA9       0.038200
     51 H22C        -3.4780     0.9540    -4.2550 h1         1 AA9       0.038200
     52 H3          -5.7010     1.3790    -2.4310 hn         1 AA9       0.473000
     53 H5          -5.6510     1.5080    -0.1320 ha         1 AA9       0.113000
     54 H9          -2.1940     0.3150    -2.3770 ha         1 AA9       0.122000
     55 H7          -2.0220     0.5190     1.9430 ha         1 AA9       0.151000
     56 H12         -0.3890     0.2090    -2.2330 hn         1 AA9       0.324500
     57 H13          1.5150    -1.6550    -1.1870 h1         1 AA9       0.091700
     58 H141         1.8380    -0.1130    -3.7940 hc         1 AA9       0.046700
     59 H142         2.4320    -1.7130    -3.3970 hc         1 AA9       0.046700
     60 H21          2.4850     0.2560    -0.0700 h1         1 AA9       0.109700
     61 H16         -0.1520     0.0580    -5.0800 ha         1 AA9       0.109000
     62 H20          0.4800    -3.4780    -2.6680 ha         1 AA9       0.109000
     63 H17         -2.2530    -0.9250    -5.9640 ha         1 AA9       0.112000
     64 H18         -3.0000    -3.1770    -5.2010 ha         1 AA9       0.114000
     65 H19         -1.6280    -4.4520    -3.5550 ha         1 AA9       0.112000
     66 H22          2.7230     1.4140    -2.6990 ho         1 AA9       0.432000
     67 H231         4.0330    -1.4770    -0.9380 h1         1 AA9       0.032700
     68 H232         4.2460    -0.5420    -2.4270 h1         1 AA9       0.032700
     69 H24          5.0300     1.3150    -1.0300 hn         1 AA9       0.445000
     70 H25          6.5700    -1.1830    -0.5210 h1         1 AA9       0.063700
     71 H261         6.9000     1.0130    -2.6460 hc         1 AA9       0.043367
     72 H262         8.0530    -0.3030    -2.3470 hc         1 AA9       0.043367
     73 H263         6.4290    -0.6800    -2.9340 hc         1 AA9       0.043367
     74 H29          7.8610    -1.1170     1.1200 hn         1 AA9       0.307500
     75 H30          8.7760     1.3440     2.4420 h1         1 AA9       0.078700
     76 H311         8.0980    -0.6440     3.7900 hc         1 AA9       0.044200
     77 H312         9.3230    -1.6370     3.0060 hc         1 AA9       0.044200
     78 H351        10.7850    -0.5620     1.0790 hc         1 AA9       0.044200
     79 H352        10.4980     1.1170     0.6360 hc         1 AA9       0.044200
     80 H321         9.8420     0.8140     4.8020 hc         1 AA9       0.043450
     81 H322        10.1490    -0.8670     5.2250 hc         1 AA9       0.043450
     82 H331        12.2610     0.3210     4.5140 hc         1 AA9       0.039700
     83 H332        11.9020    -1.0540     3.4740 hc         1 AA9       0.039700
     84 H341        11.3350     1.9080     2.8400 hc         1 AA9       0.043450
     85 H342        12.5480     0.8900     2.0700 hc         1 AA9       0.043450
     86 H38         -6.9290     2.3190     3.3390 ha         1 AA9       0.119000
     87 H42         -4.9830    -1.2490     1.8330 ha         1 AA9       0.119000
     88 H39         -8.9640     1.0250     3.7570 ha         1 AA9       0.117000
     89 H40         -9.0560    -1.4050     3.2170 ha         1 AA9       0.115000
     90 H41         -7.0550    -2.5330     2.2480 ha         1 AA9       0.117000
     91 H441        -6.0080     3.8670     2.1280 h1         1 AA9       0.100700
     92 H442        -4.7070     5.0230     2.6050 h1         1 AA9       0.100700
     93 H443        -4.5310     4.0300     1.1090 h1         1 AA9       0.100700
@<TRIPOS>BOND
     1     1     2 1   
     2     1    47 1   
     3     1    48 1   
     4     1    49 1   
     5     2     3 1   
     6     2    50 1   
     7     2    51 1   
     8     3     4 1   
     9     3    52 1   
    10     4     5 ar  
    11     4     9 ar  
    12     5     6 ar  
    13     5    53 1   
    14     6     7 ar  
    15     6    36 1   
    16     7     8 ar  
    17     7    55 1   
    18     8     9 ar  
    19     8    10 1   
    20     9    54 1   
    21    10    11 2   
    22    10    12 1   
    23    12    13 1   
    24    12    56 1   
    25    13    14 1   
    26    13    21 1   
    27    13    57 1   
    28    14    15 1   
    29    14    58 1   
    30    14    59 1   
    31    15    16 ar  
    32    15    20 ar  
    33    16    17 ar  
    34    16    61 1   
    35    17    18 ar  
    36    17    63 1   
    37    18    19 ar  
    38    18    64 1   
    39    19    20 ar  
    40    19    65 1   
    41    20    62 1   
    42    21    22 1   
    43    21    23 1   
    44    21    60 1   
    45    22    66 1   
    46    23    24 1   
    47    23    67 1   
    48    23    68 1   
    49    24    25 1   
    50    24    69 1   
    51    25    26 1   
    52    25    27 1   
    53    25    70 1   
    54    26    71 1   
    55    26    72 1   
    56    26    73 1   
    57    27    28 2   
    58    27    29 1   
    59    29    30 1   
    60    29    74 1   
    61    30    31 1   
    62    30    35 1   
    63    30    75 1   
    64    31    32 1   
    65    31    76 1   
    66    31    77 1   
    67    32    33 1   
    68    32    80 1   
    69    32    81 1   
    70    33    34 1   
    71    33    82 1   
    72    33    83 1   
    73    34    35 1   
    74    34    84 1   
    75    34    85 1   
    76    35    78 1   
    77    35    79 1   
    78    36    37 1   
    79    36    43 1   
    80    37    38 ar  
    81    37    42 ar  
    82    38    39 ar  
    83    38    86 1   
    84    39    40 ar  
    85    39    88 1   
    86    40    41 ar  
    87    40    89 1   
    88    41    42 ar  
    89    41    90 1   
    90    42    87 1   
    91    43    44 1   
    92    43    45 2   
    93    43    46 2   
    94    44    91 1   
    95    44    92 1   
    96    44    93 1   
@<TRIPOS>SUBSTRUCTURE
     1 AA9         1 TEMP              0 ****  ****    0 ROOT
