@<TRIPOS>MOLECULE
AA9
   93    96     1     0     0
SMALL
bcc


@<TRIPOS>ATOM
      1 C1          -4.2250     2.4860    -5.0640 c3         1 AA9      -0.107100
      2 C2          -3.4730     1.7860    -3.9490 c3         1 AA9       0.215800
      3 N3          -4.2850     1.7230    -2.7540 nu         1 AA9      -0.767600
      4 C4          -3.8160     1.2140    -1.5780 ca         1 AA9       0.185600
      5 C5          -4.5200     1.4400    -0.3850 ca         1 AA9      -0.203000
      6 C6          -4.0940     0.8750     0.8050 ca         1 AA9       0.158600
      7 C7          -2.9580     0.0770     0.8580 ca         1 AA9      -0.097000
      8 C8          -2.2280    -0.1080    -0.3080 ca         1 AA9      -0.096600
      9 C9          -2.6470     0.4460    -1.5130 ca         1 AA9      -0.181000
     10 C10         -0.9860    -0.9420    -0.2510 c          1 AA9       0.689700
     11 O11         -0.9310    -1.9540     0.4330 o          1 AA9      -0.598100
     12 N12          0.0340    -0.4730    -0.9880 ns         1 AA9      -0.559900
     13 C13          1.2880    -1.1610    -1.1910 c3         1 AA9       0.085700
     14 C14          1.4630    -1.5320    -2.6730 c3         1 AA9      -0.048100
     15 C15          0.2160    -2.1360    -3.2560 ca         1 AA9      -0.078300
     16 C16         -0.5680    -1.4190    -4.1550 ca         1 AA9      -0.123500
     17 C17         -1.7400    -1.9590    -4.6700 ca         1 AA9      -0.125000
     18 C18         -2.1450    -3.2310    -4.2900 ca         1 AA9      -0.123000
     19 C19         -1.3680    -3.9570    -3.3950 ca         1 AA9      -0.125000
     20 C20         -0.1980    -3.4120    -2.8840 ca         1 AA9      -0.123500
     21 C21          2.4310    -0.2970    -0.6360 c3         1 AA9       0.119100
     22 O22          2.3970     1.0140    -1.1700 oh         1 AA9      -0.590800
     23 C23          3.8030    -0.9350    -0.8130 c3         1 AA9       0.136800
     24 N24          4.7860    -0.1820    -0.0620 n7         1 AA9      -0.799200
     25 C25          6.1610    -0.6010    -0.2350 c3         1 AA9       0.099500
     26 C26          6.7140    -0.4640    -1.6610 c3         1 AA9      -0.131100
     27 C27          7.0290     0.2500     0.6870 c          1 AA9       0.671100
     28 O28          6.7450     1.4160     0.9300 o          1 AA9      -0.597100
     29 N29          8.1290    -0.3510     1.1620 ns         1 AA9      -0.569900
     30 C30          9.1630     0.3490     1.9020 c6         1 AA9       0.111700
     31 C31          9.9790    -0.6380     2.7290 c6         1 AA9      -0.089900
     32 C32         11.0580     0.0850     3.5290 c6         1 AA9      -0.071900
     33 C33         11.9610     0.9220     2.6280 c6         1 AA9      -0.077400
     34 C34         11.1440     1.8950     1.7840 c6         1 AA9      -0.071900
     35 C35         10.0730     1.1630     0.9810 c6         1 AA9      -0.089900
     36 N36         -4.8470     1.1000     1.9950 nh         1 AA9      -0.555300
     37 C37         -6.1540     0.5440     2.1290 ca         1 AA9       0.136600
     38 C38         -7.2800     1.2360     1.7000 ca         1 AA9      -0.113500
     39 C39         -8.5360     0.6570     1.8260 ca         1 AA9      -0.120000
     40 C40         -8.6650    -0.6130     2.3700 ca         1 AA9      -0.119000
     41 C41         -7.5370    -1.3050     2.7930 ca         1 AA9      -0.120000
     42 C42         -6.2820    -0.7270     2.6770 ca         1 AA9      -0.113500
     43 S43         -4.3120     2.2080     3.1080 s6         1 AA9       1.265900
     44 C44         -4.7770     3.8000     2.4710 c3         1 AA9      -0.263300
     45 O45         -5.0610     1.9630     4.3280 o          1 AA9      -0.596300
     46 O46         -2.8610     2.1490     3.1240 o          1 AA9      -0.596300
     47 H11C        -3.6090     2.5310    -5.9610 hc         1 AA9       0.043700
     48 H12C        -5.1460     1.9580    -5.3120 hc         1 AA9       0.043700
     49 H13C        -4.4820     3.5090    -4.7850 hc         1 AA9       0.043700
     50 H21C        -3.2170     0.7710    -4.2680 h1         1 AA9       0.038200
     51 H22C        -2.5240     2.3030    -3.7590 h1         1 AA9       0.038200
     52 H3          -4.9870     2.4410    -2.6690 hn         1 AA9       0.417800
     53 H5          -5.4110     2.0560    -0.4000 ha         1 AA9       0.131000
     54 H9          -2.0820     0.2410    -2.4130 ha         1 AA9       0.140000
     55 H7          -2.6440    -0.3680     1.7910 ha         1 AA9       0.169000
     56 H12         -0.0700     0.4280    -1.4280 hn         1 AA9       0.324500
     57 H13          1.2520    -2.0770    -0.6000 h1         1 AA9       0.091700
     58 H141         1.7380    -0.6480    -3.2550 hc         1 AA9       0.046700
     59 H142         2.2940    -2.2350    -2.7610 hc         1 AA9       0.046700
     60 H21          2.2500    -0.1770     0.4360 h1         1 AA9       0.109700
     61 H16         -0.2600    -0.4230    -4.4550 ha         1 AA9       0.127000
     62 H20          0.4000    -3.9900    -2.1880 ha         1 AA9       0.127000
     63 H17         -2.3340    -1.3860    -5.3710 ha         1 AA9       0.130000
     64 H18         -3.0560    -3.6560    -4.6900 ha         1 AA9       0.132000
     65 H19         -1.6720    -4.9510    -3.0950 ha         1 AA9       0.130000
     66 H22          2.7140     0.9930    -2.0790 ho         1 AA9       0.393000
     67 H231         3.7700    -1.9620    -0.4360 h1         1 AA9       0.032700
     68 H232         4.0320    -1.0080    -1.8880 h1         1 AA9       0.032700
     69 H24          4.7110     0.8000    -0.3000 hn         1 AA9       0.389800
     70 H25          6.2380    -1.6510     0.0680 h1         1 AA9       0.063700
     71 H261         6.6420     0.5710    -2.0020 hc         1 AA9       0.043367
     72 H262         7.7610    -0.7650    -1.7140 hc         1 AA9       0.043367
     73 H263         6.1630    -1.0890    -2.3630 hc         1 AA9       0.043367
     74 H29          8.3180    -1.3010     0.8790 hn         1 AA9       0.307500
     75 H30          8.6620     1.0390     2.5900 h1         1 AA9       0.078700
     76 H311         9.3190    -1.1980     3.3970 hc         1 AA9       0.044200
     77 H312        10.4510    -1.3680     2.0600 hc         1 AA9       0.044200
     78 H351        10.5470     0.4850     0.2630 hc         1 AA9       0.044200
     79 H352         9.4770     1.8730     0.4040 hc         1 AA9       0.044200
     80 H321        10.5810     0.7360     4.2700 hc         1 AA9       0.043450
     81 H322        11.6490    -0.6410     4.0910 hc         1 AA9       0.043450
     82 H331        12.6960     1.4630     3.2290 hc         1 AA9       0.039700
     83 H332        12.5270     0.2570     1.9660 hc         1 AA9       0.039700
     84 H341        10.6660     2.6310     2.4380 hc         1 AA9       0.043450
     85 H342        11.7960     2.4570     1.1110 hc         1 AA9       0.043450
     86 H38         -7.1860     2.2240     1.2670 ha         1 AA9       0.137000
     87 H42         -5.3980    -1.2550     3.0100 ha         1 AA9       0.137000
     88 H39         -9.4120     1.2000     1.4970 ha         1 AA9       0.135000
     89 H40         -9.6450    -1.0630     2.4670 ha         1 AA9       0.133000
     90 H41         -7.6360    -2.2940     3.2210 ha         1 AA9       0.135000
     91 H441        -5.8610     3.8700     2.4170 h1         1 AA9       0.100700
     92 H442        -4.3950     4.5570     3.1550 h1         1 AA9       0.100700
     93 H443        -4.3370     3.9410     1.4860 h1         1 AA9       0.100700
@<TRIPOS>BOND
     1     1     2 1   
     2     1    47 1   
     3     1    48 1   
     4     1    49 1   
     5     2     3 1   
     6     2    50 1   
     7     2    51 1   
     8     3     4 1   
     9     3    52 1   
    10     4     5 ar  
    11     4     9 ar  
    12     5     6 ar  
    13     5    53 1   
    14     6     7 ar  
    15     6    36 1   
    16     7     8 ar  
    17     7    55 1   
    18     8     9 ar  
    19     8    10 1   
    20     9    54 1   
    21    10    11 2   
    22    10    12 1   
    23    12    13 1   
    24    12    56 1   
    25    13    14 1   
    26    13    21 1   
    27    13    57 1   
    28    14    15 1   
    29    14    58 1   
    30    14    59 1   
    31    15    16 ar  
    32    15    20 ar  
    33    16    17 ar  
    34    16    61 1   
    35    17    18 ar  
    36    17    63 1   
    37    18    19 ar  
    38    18    64 1   
    39    19    20 ar  
    40    19    65 1   
    41    20    62 1   
    42    21    22 1   
    43    21    23 1   
    44    21    60 1   
    45    22    66 1   
    46    23    24 1   
    47    23    67 1   
    48    23    68 1   
    49    24    25 1   
    50    24    69 1   
    51    25    26 1   
    52    25    27 1   
    53    25    70 1   
    54    26    71 1   
    55    26    72 1   
    56    26    73 1   
    57    27    28 2   
    58    27    29 1   
    59    29    30 1   
    60    29    74 1   
    61    30    31 1   
    62    30    35 1   
    63    30    75 1   
    64    31    32 1   
    65    31    76 1   
    66    31    77 1   
    67    32    33 1   
    68    32    80 1   
    69    32    81 1   
    70    33    34 1   
    71    33    82 1   
    72    33    83 1   
    73    34    35 1   
    74    34    84 1   
    75    34    85 1   
    76    35    78 1   
    77    35    79 1   
    78    36    37 1   
    79    36    43 1   
    80    37    38 ar  
    81    37    42 ar  
    82    38    39 ar  
    83    38    86 1   
    84    39    40 ar  
    85    39    88 1   
    86    40    41 ar  
    87    40    89 1   
    88    41    42 ar  
    89    41    90 1   
    90    42    87 1   
    91    43    44 1   
    92    43    45 2   
    93    43    46 2   
    94    44    91 1   
    95    44    92 1   
    96    44    93 1   
@<TRIPOS>SUBSTRUCTURE
     1 AA9         1 TEMP              0 ****  ****    0 ROOT
