@<TRIPOS>MOLECULE
AAA
   39    40     1     0     0
SMALL
bcc


@<TRIPOS>ATOM
      1 C1           0.0900     0.8470     3.0610 ca         1 AAA      -0.278600
      2 C1A          1.3950     1.5150     2.9580 c          1 AAA       0.599700
      3 C1B          1.8180     2.4540     4.0580 c3         1 AAA      -0.191100
      4 O1B          2.1470     1.3330     2.0060 o          1 AAA      -0.569100
      5 C2          -0.7190     1.0710     4.1850 ca         1 AAA      -0.039000
      6 C3          -1.9550     0.4900     4.3340 ca         1 AAA      -0.204000
      7 C4          -2.4380    -0.3710     3.3410 ca         1 AAA       0.007700
      8 C4A         -3.7820    -1.0140     3.4900 c3         1 AAA      -0.057800
      9 C5          -1.6580    -0.6210     2.2280 ca         1 AAA      -0.233000
     10 C6          -0.3980    -0.0240     2.0460 ca         1 AAA       0.257600
     11 N7           0.3560    -0.2940     0.9420 nu         1 AAA      -0.783600
     12 C8          -0.1450    -0.8690    -0.2770 c3         1 AAA       0.188800
     13 C8A          0.0700    -2.3810    -0.4470 c          1 AAA       0.663100
     14 N8B          0.3830    -3.0430     0.6680 nt         1 AAA      -0.655000
     15 O8B         -0.1510    -2.9020    -1.5280 o          1 AAA      -0.597100
     16 C9           0.3470    -0.0930    -1.4800 ca         1 AAA      -0.031300
     17 C10         -0.4730     0.8060    -2.1720 ca         1 AAA       0.003600
     18 BR1         -2.2620     1.1220    -1.6370 br         1 AAA      -0.086100
     19 C11         -0.0290     1.5280    -3.2710 ca         1 AAA      -0.094000
     20 C12          1.2760     1.3760    -3.7020 ca         1 AAA      -0.117000
     21 C13          2.1350     0.5230    -3.0310 ca         1 AAA      -0.094000
     22 C14          1.6660    -0.1880    -1.9370 ca         1 AAA       0.003600
     23 BR2          2.9150    -1.2960    -1.0510 br         1 AAA      -0.086100
     24 H1B1         2.7910     2.8800     3.8230 hc         1 AAA       0.061700
     25 H1B2         1.1020     3.2660     4.1860 hc         1 AAA       0.061700
     26 H1B3         1.8890     1.9320     5.0130 hc         1 AAA       0.061700
     27 H2          -0.3640     1.7250     4.9700 ha         1 AAA       0.128000
     28 H3          -2.5480     0.6910     5.2180 ha         1 AAA       0.135000
     29 H4A1        -4.5750    -0.2680     3.4160 hc         1 AAA       0.048033
     30 H4A2        -3.9580    -1.7660     2.7230 hc         1 AAA       0.048033
     31 H4A3        -3.8820    -1.4900     4.4660 hc         1 AAA       0.048033
     32 H5          -2.0390    -1.3180     1.4930 ha         1 AAA       0.139000
     33 HN7          1.2430     0.1950     0.9210 hn         1 AAA       0.478800
     34 H8          -1.2340    -0.7960    -0.2680 h1         1 AAA       0.094700
     35 HN81         0.5290    -4.0390     0.6380 hn         1 AAA       0.320000
     36 HN82         0.6800    -2.5550     1.4960 hn         1 AAA       0.320000
     37 H11         -0.6910     2.2080    -3.7880 ha         1 AAA       0.153500
     38 H12          1.6300     1.9330    -4.5590 ha         1 AAA       0.142000
     39 H13          3.1600     0.4200    -3.3580 ha         1 AAA       0.153500
@<TRIPOS>BOND
     1     1     2 1   
     2     1     5 ar  
     3     1    10 ar  
     4     2     3 1   
     5     2     4 2   
     6     3    24 1   
     7     3    25 1   
     8     3    26 1   
     9     5     6 ar  
    10     5    27 1   
    11     6     7 ar  
    12     6    28 1   
    13     7     8 1   
    14     7     9 ar  
    15     8    29 1   
    16     8    30 1   
    17     8    31 1   
    18     9    10 ar  
    19     9    32 1   
    20    10    11 1   
    21    11    12 1   
    22    11    33 1   
    23    12    13 1   
    24    12    16 1   
    25    12    34 1   
    26    13    14 1   
    27    13    15 2   
    28    14    35 1   
    29    14    36 1   
    30    16    17 ar  
    31    16    22 ar  
    32    17    18 1   
    33    17    19 ar  
    34    19    20 ar  
    35    19    37 1   
    36    20    21 ar  
    37    20    38 1   
    38    21    22 ar  
    39    21    39 1   
    40    22    23 1   
@<TRIPOS>SUBSTRUCTURE
     1 AAA         1 TEMP              0 ****  ****    0 ROOT
