@<TRIPOS>MOLECULE
AAA
   39    40     1     0     0
SMALL
No Charge or Current Charge


@<TRIPOS>ATOM
      1 C1           0.2610     0.5160     2.8010 ca         1 AAA      -0.278600
      2 C1A          1.7100     0.8320     2.5420 c          1 AAA       0.599700
      3 C1B          2.1670     2.2890     2.5810 c3         1 AAA      -0.191100
      4 O1B          2.5210    -0.0560     2.3060 o          1 AAA      -0.569100
      5 C2          -0.4870     1.3170     3.6920 ca         1 AAA      -0.021000
      6 C3          -1.8410     1.0370     3.9360 ca         1 AAA      -0.186000
      7 C4          -2.4690    -0.0440     3.3000 ca         1 AAA       0.007700
      8 C4A         -3.9370    -0.3460     3.5560 c3         1 AAA      -0.057800
      9 C5          -1.7280    -0.8360     2.4110 ca         1 AAA      -0.215000
     10 C6          -0.3780    -0.5600     2.1550 ca         1 AAA       0.396000
     11 N7           0.2950    -1.3390     1.2240 nu         1 AAA      -0.977200
     12 C8          -0.1500    -1.4580    -0.2050 c3         1 AAA       0.188800
     13 C8A          0.3310    -2.7610    -0.9450 c          1 AAA       0.596100
     14 N8B          0.6830    -3.7990    -0.1490 nt         1 AAA      -0.588000
     15 O8B          0.3870    -2.8820    -2.1610 o          1 AAA      -0.597100
     16 C9           0.1970    -0.1580    -0.9600 ca         1 AAA      -0.031300
     17 C10         -0.8190     0.7820    -1.2900 ca         1 AAA       0.003600
     18 Br1         -2.6700     0.5170    -0.8370 br         1 AAA      -0.086100
     19 C11         -0.5000     1.9770    -1.9590 ca         1 AAA      -0.076000
     20 C12          0.8260     2.2660    -2.3050 ca         1 AAA      -0.099000
     21 C13          1.8430     1.3600    -1.9750 ca         1 AAA      -0.076000
     22 C14          1.5400     0.1610    -1.3070 ca         1 AAA       0.003600
     23 Br2          3.0280    -0.9840    -0.8830 br         1 AAA      -0.086100
     24 H1B1         3.1570     2.4250     2.1310 hc         1 AAA       0.061700
     25 H1B2         1.4060     2.9280     2.1200 hc         1 AAA       0.061700
     26 H1B3         2.1840     2.6220     3.6240 hc         1 AAA       0.061700
     27 H2          -0.0280     2.1560     4.2100 ha         1 AAA       0.110000
     28 H3          -2.4010     1.6650     4.6260 ha         1 AAA       0.117000
     29 H4A1        -4.5690     0.1180     2.7900 hc         1 AAA       0.048033
     30 H4A2        -4.1290    -1.4250     3.5430 hc         1 AAA       0.048033
     31 H4A3        -4.2610     0.0340     4.5330 hc         1 AAA       0.048033
     32 H5          -2.2090    -1.6710     1.9100 ha         1 AAA       0.121000
     33 HN7          1.3100    -1.2140     1.3330 hn         1 AAA       0.534000
     34 H8          -1.2340    -1.6040    -0.2070 h1         1 AAA       0.094700
     35 HN81         0.9990    -4.6640    -0.5590 hn         1 AAA       0.320000
     36 HN82         0.6310    -3.6800     0.8530 hn         1 AAA       0.320000
     37 H11         -1.2870     2.6860    -2.2060 ha         1 AAA       0.135500
     38 H12          1.0670     3.1930    -2.8210 ha         1 AAA       0.124000
     39 H13          2.8730     1.5910    -2.2350 ha         1 AAA       0.135500
@<TRIPOS>BOND
     1     1     2 1   
     2     1     5 ar  
     3     1    10 ar  
     4     2     3 1   
     5     2     4 2   
     6     3    24 1   
     7     3    25 1   
     8     3    26 1   
     9     5     6 ar  
    10     5    27 1   
    11     6     7 ar  
    12     6    28 1   
    13     7     8 1   
    14     7     9 ar  
    15     8    29 1   
    16     8    30 1   
    17     8    31 1   
    18     9    10 ar  
    19     9    32 1   
    20    10    11 1   
    21    11    12 1   
    22    11    33 1   
    23    12    13 1   
    24    12    16 1   
    25    12    34 1   
    26    13    14 1   
    27    13    15 2   
    28    14    35 1   
    29    14    36 1   
    30    16    17 ar  
    31    16    22 ar  
    32    17    18 1   
    33    17    19 ar  
    34    19    20 ar  
    35    19    37 1   
    36    20    21 ar  
    37    20    38 1   
    38    21    22 ar  
    39    21    39 1   
    40    22    23 1   
@<TRIPOS>SUBSTRUCTURE
     1 AAA         1 TEMP              0 ****  ****    0 ROOT
