@<TRIPOS>MOLECULE
AAC
   14    13     1     0     0
SMALL
No Charge or Current Charge


@<TRIPOS>ATOM
      1 C1          -0.1270    -0.0220    -1.8810 c          1 AAC       0.712000
      2 C2           0.6490     0.0010    -0.5310 c3         1 AAC      -0.057000
      3 C3           0.1670     0.0230     1.9590 c          1 AAC       0.582100
      4 C4          -0.9600     0.0240     2.9880 c3         1 AAC      -0.179100
      5 N1          -0.2490     0.0050     0.6480 ns         1 AAC      -0.466900
      6 O1           0.5280    -0.0300    -2.9140 o          1 AAC      -0.731500
      7 O2          -1.3510    -0.0310    -1.8610 o          1 AAC      -0.731500
      8 O3           1.3490     0.0370     2.2750 o          1 AAC      -0.662100
      9 HC21         1.2770     0.9010    -0.5070 h1         1 AAC       0.034700
     10 HC22         1.2950    -0.8850    -0.4870 h1         1 AAC       0.034700
     11 HC41        -0.5930     0.0380     4.0210 hc         1 AAC       0.043033
     12 HC42        -1.6300     0.8680     2.7860 hc         1 AAC       0.043033
     13 HC43        -1.6140    -0.8370     2.8040 hc         1 AAC       0.043033
     14 HN1         -1.2500    -0.0060     0.4830 hn         1 AAC       0.336500
@<TRIPOS>BOND
     1     1     2 1   
     2     1     6 1   
     3     1     7 1   
     4     2     5 1   
     5     2     9 1   
     6     2    10 1   
     7     3     4 1   
     8     3     5 1   
     9     3     8 2   
    10     4    11 1   
    11     4    12 1   
    12     4    13 1   
    13     5    14 1   
@<TRIPOS>SUBSTRUCTURE
     1 AAC         1 TEMP              0 ****  ****    0 ROOT
