@<TRIPOS>MOLECULE
AAC
   14    13     1     0     0
SMALL
abcg2


@<TRIPOS>ATOM
      1 C1          -0.1460    -0.0190    -1.8220 c          1 AAC       0.712000
      2 C2           0.6410    -0.0000    -0.4950 c3         1 AAC      -0.057000
      3 C3           0.1500     0.0240     1.9110 c          1 AAC       0.582100
      4 C4          -0.9730     0.0230     2.9250 c3         1 AAC      -0.179100
      5 N1          -0.2500     0.0040     0.6350 ns         1 AAC      -0.466900
      6 O1           0.5510    -0.0280    -2.8510 o          1 AAC      -0.731500
      7 O2          -1.3900    -0.0240    -1.7470 o          1 AAC      -0.731500
      8 O3           1.3330     0.0390     2.2360 o          1 AAC      -0.662100
      9 HC21         1.2910     0.8810    -0.4840 h1         1 AAC       0.034700
     10 HC22         1.3040    -0.8710    -0.4680 h1         1 AAC       0.034700
     11 HC41        -0.5730     0.0430     3.9360 hc         1 AAC       0.043033
     12 HC42        -1.6200     0.8900     2.7880 hc         1 AAC       0.043033
     13 HC43        -1.5960    -0.8650     2.8140 hc         1 AAC       0.043033
     14 HN1         -1.2320    -0.0090     0.4040 hn         1 AAC       0.336500
@<TRIPOS>BOND
     1     1     2 1   
     2     1     6 1   
     3     1     7 1   
     4     2     5 1   
     5     2     9 1   
     6     2    10 1   
     7     3     4 1   
     8     3     5 1   
     9     3     8 2   
    10     4    11 1   
    11     4    12 1   
    12     4    13 1   
    13     5    14 1   
@<TRIPOS>SUBSTRUCTURE
     1 AAC         1 TEMP              0 ****  ****    0 ROOT
