@<TRIPOS>MOLECULE
AAE
   12    11     1     0     0
SMALL
No Charge or Current Charge


@<TRIPOS>ATOM
      1 O1           0.3690     0.1890    -1.8030 o          1 AAE      -0.727000
      2 C2          -0.2440    -0.4370    -0.9530 c          1 AAE       0.734000
      3 O3          -0.1550    -1.6430    -0.8000 o          1 AAE      -0.727000
      4 C4          -1.1090     0.3350     0.0130 c3         1 AAE      -0.333400
      5 C5          -0.1980     0.6610     1.1810 c          1 AAE       0.621100
      6 O8           0.5510     1.6310     1.1630 o          1 AAE      -0.586100
      7 C9          -0.2730    -0.2590     2.4040 c3         1 AAE      -0.191100
      8 H41         -1.9010    -0.3190     0.3980 hc         1 AAE       0.041200
      9 H42         -1.4240     1.2890    -0.4250 hc         1 AAE       0.041200
     10 H91          0.4300     0.0270     3.1940 hc         1 AAE       0.042033
     11 H92         -1.3050    -0.2730     2.7740 hc         1 AAE       0.042033
     12 H93         -0.1290    -1.2970     2.0850 hc         1 AAE       0.042033
@<TRIPOS>BOND
     1     1     2 1   
     2     2     3 1   
     3     2     4 1   
     4     4     5 1   
     5     4     8 1   
     6     4     9 1   
     7     5     6 2   
     8     5     7 1   
     9     7    10 1   
    10     7    11 1   
    11     7    12 1   
@<TRIPOS>SUBSTRUCTURE
     1 AAE         1 TEMP              0 ****  ****    0 ROOT
