@<TRIPOS>MOLECULE
AAE
   12    11     1     0     0
SMALL
abcg2


@<TRIPOS>ATOM
      1 O1          -0.7000    -0.5930    -2.0560 o          1 AAE      -0.727000
      2 C2          -0.1710    -0.4450    -0.9420 c          1 AAE       0.734000
      3 O3           0.8550    -0.9990    -0.5050 o          1 AAE      -0.727000
      4 C4          -0.8710     0.5550     0.0190 c3         1 AAE      -0.333400
      5 C5          -0.1350     0.6290     1.3240 c          1 AAE       0.621100
      6 O8           0.6730     1.5030     1.5610 o          1 AAE      -0.586100
      7 C9          -0.4730    -0.4320     2.3340 c3         1 AAE      -0.191100
      8 H41         -1.9040     0.2300     0.1750 hc         1 AAE       0.041200
      9 H42         -0.9070     1.5410    -0.4510 hc         1 AAE       0.041200
     10 H91          0.2680    -0.4870     3.1290 hc         1 AAE       0.042033
     11 H92         -1.4420    -0.1900     2.7810 hc         1 AAE       0.042033
     12 H93         -0.5800    -1.4080     1.8620 hc         1 AAE       0.042033
@<TRIPOS>BOND
     1     1     2 1   
     2     2     3 1   
     3     2     4 1   
     4     4     5 1   
     5     4     8 1   
     6     4     9 1   
     7     5     6 2   
     8     5     7 1   
     9     7    10 1   
    10     7    11 1   
    11     7    12 1   
@<TRIPOS>SUBSTRUCTURE
     1 AAE         1 TEMP              0 ****  ****    0 ROOT
