@<TRIPOS>MOLECULE
AAF
   58    60     1     0     0
SMALL
No Charge or Current Charge


@<TRIPOS>ATOM
      1 C1          30.3470     5.6670    63.0780 c          1 AAF       0.586100
      2 C2          31.2380     5.2720    64.3280 c5         1 AAF       0.095500
      3 C4          32.5410     6.1380    64.3070 c5         1 AAF      -0.086400
      4 C5          33.6050     5.1570    64.8520 c5         1 AAF      -0.083400
      5 C6          33.1770     3.8090    64.2170 c5         1 AAF       0.144500
      6 C9          33.6640     3.5460    62.7560 c3         1 AAF       0.080000
      7 O3          30.2340     4.9860    62.0600 o          1 AAF      -0.676100
      8 N7          31.6950     3.8280    64.3490 n7         1 AAF      -0.867400
      9 N8          29.7570     6.9480    63.1910 n          1 AAF      -0.379800
     10 C10         29.0060     7.5390    62.0510 c5         1 AAF       0.112700
     11 C11         28.0140     8.5040    62.7730 c5         1 AAF      -0.087400
     12 C12         28.7780     8.9160    64.0550 c5         1 AAF      -0.087400
     13 C13         29.3940     7.5660    64.4910 c5         1 AAF       0.108000
     14 C14         29.9290     8.2190    60.9840 c3         1 AAF       0.143800
     15 N15         32.9860     4.3130    61.6980 ns         1 AAF      -0.517900
     16 C16         33.6090     5.0440    60.7190 c          1 AAF       0.657100
     17 O17         34.8250     5.0940    60.6060 o          1 AAF      -0.631100
     18 N18         30.8520     9.2590    61.5070 n8         1 AAF      -1.008200
     19 N19         32.6990     5.6790    59.8940 ns         1 AAF      -0.166000
     20 C20         32.8710     6.5560    58.7930 ca         1 AAF       0.046000
     21 C21         31.7520     6.8240    57.9860 ca         1 AAF      -0.187000
     22 C22         31.8480     7.6930    56.8850 ca         1 AAF      -0.021000
     23 C23         33.0730     8.3170    56.5710 ca         1 AAF      -0.189600
     24 C24         34.1970     8.0530    57.3860 ca         1 AAF      -0.021000
     25 C25         34.0950     7.1840    58.4860 ca         1 AAF      -0.187000
     26 C26         33.1600     9.2470    55.3850 c          1 AAF       0.610700
     27 O27         32.2010     9.4950    54.6640 o          1 AAF      -0.501000
     28 O28         34.4080     9.7840    55.1920 os         1 AAF      -0.448100
     29 C29         34.5980    10.6860    54.0860 c3         1 AAF       0.154900
     30 H2          30.6600     5.4630    65.2420 h1         1 AAF       0.076700
     31 H41         32.4570     7.0390    64.9240 hc         1 AAF       0.056700
     32 H42         32.7950     6.4750    63.2960 hc         1 AAF       0.056700
     33 H51         34.6270     5.4480    64.5840 hc         1 AAF       0.061700
     34 H52         33.5620     5.1010    65.9460 hc         1 AAF       0.061700
     35 H6          33.5940     2.9850    64.8160 h1         1 AAF       0.074700
     36 H91         33.5120     2.4810    62.5350 h1         1 AAF       0.067700
     37 H92         34.7470     3.7280    62.7150 h1         1 AAF       0.067700
     38 HN7         31.2570     3.3050    63.5770 hn         1 AAF       0.437000
     39 H10         28.4320     6.7650    61.5230 h1         1 AAF       0.072700
     40 H111        27.7270     9.3620    62.1540 hc         1 AAF       0.053700
     41 H112        27.0880     7.9760    63.0320 hc         1 AAF       0.053700
     42 H121        29.5550     9.6610    63.8520 hc         1 AAF       0.059200
     43 H122        28.1200     9.3380    64.8230 hc         1 AAF       0.059200
     44 H131        28.6600     6.9440    65.0210 h1         1 AAF       0.050200
     45 H132        30.2580     7.7230    65.1470 h1         1 AAF       0.050200
     46 H141        29.2960     8.6720    60.2080 h1         1 AAF       0.038200
     47 H142        30.5350     7.4390    60.5060 h1         1 AAF       0.038200
     48 HN15        31.9710     4.3760    61.7290 hn         1 AAF       0.341500
     49 H181        31.3610     9.6810    60.7220 hn         1 AAF       0.400500
     50 H182        30.2990    10.0360    61.8860 hn         1 AAF       0.400500
     51 HN19        31.7310     5.4910    60.1190 hn         1 AAF       0.156000
     52 H21         30.7970     6.3530    58.2080 ha         1 AAF       0.133000
     53 H22         30.9640     7.8780    56.2770 ha         1 AAF       0.131000
     54 H24         35.1580     8.5210    57.1770 ha         1 AAF       0.131000
     55 H25         34.9770     7.0190    59.0950 ha         1 AAF       0.133000
     56 H291        33.9450    11.5640    54.1790 h1         1 AAF       0.049033
     57 H292        35.6370    11.0370    54.0520 h1         1 AAF       0.049033
     58 H293        34.3760    10.1880    53.1320 h1         1 AAF       0.049033
@<TRIPOS>BOND
     1     1     2 1   
     2     1     7 2   
     3     1     9 1   
     4     2     3 1   
     5     2     8 1   
     6     2    30 1   
     7     3     4 1   
     8     3    31 1   
     9     3    32 1   
    10     4     5 1   
    11     4    33 1   
    12     4    34 1   
    13     5     6 1   
    14     5     8 1   
    15     5    35 1   
    16     6    15 1   
    17     6    36 1   
    18     6    37 1   
    19     8    38 1   
    20     9    10 1   
    21     9    13 1   
    22    10    11 1   
    23    10    14 1   
    24    10    39 1   
    25    11    12 1   
    26    11    40 1   
    27    11    41 1   
    28    12    13 1   
    29    12    42 1   
    30    12    43 1   
    31    13    44 1   
    32    13    45 1   
    33    14    18 1   
    34    14    46 1   
    35    14    47 1   
    36    15    16 1   
    37    15    48 1   
    38    16    17 2   
    39    16    19 1   
    40    18    49 1   
    41    18    50 1   
    42    19    20 1   
    43    19    51 1   
    44    20    21 ar  
    45    20    25 ar  
    46    21    22 ar  
    47    21    52 1   
    48    22    23 ar  
    49    22    53 1   
    50    23    24 ar  
    51    23    26 1   
    52    24    25 ar  
    53    24    54 1   
    54    25    55 1   
    55    26    27 2   
    56    26    28 1   
    57    28    29 1   
    58    29    56 1   
    59    29    57 1   
    60    29    58 1   
@<TRIPOS>SUBSTRUCTURE
     1 AAF         1 TEMP              0 ****  ****    0 ROOT
