@<TRIPOS>MOLECULE
AAF
   58    60     1     0     0
SMALL
abcg2


@<TRIPOS>ATOM
      1 C1          30.3740     5.8010    63.2650 c          1 AAF       0.586100
      2 C2          31.5220     5.6620    64.2660 c5         1 AAF       0.095500
      3 C4          32.8000     6.3800    63.7540 c5         1 AAF      -0.086400
      4 C5          33.9330     5.4060    64.0910 c5         1 AAF      -0.083400
      5 C6          33.2890     4.0140    64.0440 c5         1 AAF       0.144500
      6 C9          33.3810     3.3080    62.6830 c3         1 AAF       0.080000
      7 O3          30.0860     4.8710    62.4910 o          1 AAF      -0.676100
      8 N7          31.9060     4.2640    64.4940 n7         1 AAF      -0.867400
      9 N8          29.7230     6.9680    63.2420 n          1 AAF      -0.379800
     10 C10         28.6320     7.2250    62.2830 c5         1 AAF       0.112700
     11 C11         27.9200     8.4420    62.8900 c5         1 AAF      -0.087400
     12 C12         29.0100     9.1870    63.6690 c5         1 AAF      -0.087400
     13 C13         29.9160     8.0740    64.1960 c5         1 AAF       0.108000
     14 C14         29.1400     7.4200    60.8510 c3         1 AAF       0.143800
     15 N15         32.7160     4.0110    61.6000 ns         1 AAF      -0.517900
     16 C16         33.3790     4.7940    60.7150 c          1 AAF       0.657100
     17 O17         34.6030     4.8770    60.6390 o          1 AAF      -0.631100
     18 N18         30.1060     8.5130    60.7150 n8         1 AAF      -1.008200
     19 N19         32.5170     5.4840    59.8710 ns         1 AAF      -0.166000
     20 C20         32.8150     6.4470    58.9190 ca         1 AAF       0.046000
     21 C21         31.7810     6.8340    58.0490 ca         1 AAF      -0.187000
     22 C22         31.9880     7.8110    57.0980 ca         1 AAF      -0.021000
     23 C23         33.2340     8.4340    56.9740 ca         1 AAF      -0.189600
     24 C24         34.2620     8.0470    57.8390 ca         1 AAF      -0.021000
     25 C25         34.0660     7.0700    58.8000 ca         1 AAF      -0.187000
     26 C26         33.4130     9.4710    55.9380 c          1 AAF       0.610700
     27 O27         32.5440     9.8310    55.1650 o          1 AAF      -0.501000
     28 O28         34.6510     9.9920    55.9270 os         1 AAF      -0.448100
     29 C29         34.9080    11.0170    54.9490 c3         1 AAF       0.154900
     30 H2          31.2040     6.1110    65.2100 h1         1 AAF       0.076700
     31 H41         32.9350     7.3500    64.2280 hc         1 AAF       0.056700
     32 H42         32.7330     6.5480    62.6790 hc         1 AAF       0.056700
     33 H51         34.7750     5.4920    63.4070 hc         1 AAF       0.061700
     34 H52         34.2970     5.5980    65.1020 hc         1 AAF       0.061700
     35 H6          33.7860     3.3480    64.7560 h1         1 AAF       0.074700
     36 H91         32.9250     2.3180    62.7750 h1         1 AAF       0.067700
     37 H92         34.4260     3.1670    62.4140 h1         1 AAF       0.067700
     38 HN7         31.2440     3.6370    64.0540 hn         1 AAF       0.437000
     39 H10         27.9720     6.3560    62.2670 h1         1 AAF       0.072700
     40 H111        27.4480     9.0590    62.1250 hc         1 AAF       0.053700
     41 H112        27.1400     8.1020    63.5730 hc         1 AAF       0.053700
     42 H121        29.5750     9.8420    63.0070 hc         1 AAF       0.059200
     43 H122        28.6070     9.7910    64.4800 hc         1 AAF       0.059200
     44 H131        29.6100     7.7540    65.1960 h1         1 AAF       0.050200
     45 H132        30.9580     8.3820    64.2370 h1         1 AAF       0.050200
     46 H141        28.2540     7.5450    60.2150 h1         1 AAF       0.038200
     47 H142        29.6300     6.4980    60.5400 h1         1 AAF       0.038200
     48 HN15        31.7200     4.1710    61.7310 hn         1 AAF       0.341500
     49 H181        30.5750     8.4410    59.8190 hn         1 AAF       0.400500
     50 H182        29.6320     9.4100    60.7130 hn         1 AAF       0.400500
     51 HN19        31.5410     5.2370    59.9390 hn         1 AAF       0.156000
     52 H21         30.8120     6.3560    58.1340 ha         1 AAF       0.133000
     53 H22         31.1830     8.1000    56.4370 ha         1 AAF       0.131000
     54 H24         35.2310     8.5200    57.7640 ha         1 AAF       0.131000
     55 H25         34.8680     6.7860    59.4590 ha         1 AAF       0.133000
     56 H291        34.2530    11.8710    55.1140 h1         1 AAF       0.049033
     57 H292        35.9470    11.3010    55.0930 h1         1 AAF       0.049033
     58 H293        34.7560    10.6270    53.9430 h1         1 AAF       0.049033
@<TRIPOS>BOND
     1     1     2 1   
     2     1     7 2   
     3     1     9 1   
     4     2     3 1   
     5     2     8 1   
     6     2    30 1   
     7     3     4 1   
     8     3    31 1   
     9     3    32 1   
    10     4     5 1   
    11     4    33 1   
    12     4    34 1   
    13     5     6 1   
    14     5     8 1   
    15     5    35 1   
    16     6    15 1   
    17     6    36 1   
    18     6    37 1   
    19     8    38 1   
    20     9    10 1   
    21     9    13 1   
    22    10    11 1   
    23    10    14 1   
    24    10    39 1   
    25    11    12 1   
    26    11    40 1   
    27    11    41 1   
    28    12    13 1   
    29    12    42 1   
    30    12    43 1   
    31    13    44 1   
    32    13    45 1   
    33    14    18 1   
    34    14    46 1   
    35    14    47 1   
    36    15    16 1   
    37    15    48 1   
    38    16    17 2   
    39    16    19 1   
    40    18    49 1   
    41    18    50 1   
    42    19    20 1   
    43    19    51 1   
    44    20    21 ar  
    45    20    25 ar  
    46    21    22 ar  
    47    21    52 1   
    48    22    23 ar  
    49    22    53 1   
    50    23    24 ar  
    51    23    26 1   
    52    24    25 ar  
    53    24    54 1   
    54    25    55 1   
    55    26    27 2   
    56    26    28 1   
    57    28    29 1   
    58    29    56 1   
    59    29    57 1   
    60    29    58 1   
@<TRIPOS>SUBSTRUCTURE
     1 AAF         1 TEMP              0 ****  ****    0 ROOT
