@<TRIPOS>MOLECULE
AAI
   43    45     1     0     0
SMALL
No Charge or Current Charge


@<TRIPOS>ATOM
      1 C1          -0.4360    -1.1000    -0.2670 cc         1 AAI       0.429800
      2 N2          -1.1530     0.0650    -0.0070 na         1 AAI      -0.292600
      3 C3          -2.4760    -0.2530     0.0090 ca         1 AAI      -0.034200
      4 C4          -2.5430    -1.5940    -0.2390 ca         1 AAI       0.054400
      5 N5          -1.2760    -2.1450    -0.4150 nd         1 AAI      -0.582100
      6 C6          -3.6070     0.5600     0.2260 ca         1 AAI      -0.159600
      7 C7          -4.8660    -0.0980     0.1740 ca         1 AAI      -0.063000
      8 C8          -4.9470    -1.4880    -0.0820 ca         1 AAI      -0.154000
      9 C9          -3.7790    -2.2510    -0.2920 ca         1 AAI      -0.020000
     10 C10         -3.4780     2.0450     0.4970 c          1 AAI       0.631700
     11 N11         -4.6070     2.7560     0.6960 nt         1 AAI      -0.598000
     12 O12         -2.4040     2.6240     0.5440 o          1 AAI      -0.641100
     13 C13          1.0720    -1.1600    -0.3650 c6         1 AAI      -0.086000
     14 C14          1.6000    -0.2650    -1.5160 c6         1 AAI      -0.073900
     15 C15          3.1460    -0.2860    -1.5700 c6         1 AAI       0.166800
     16 N16          3.7500     0.1350    -0.2740 n3         1 AAI      -0.719600
     17 C17          3.2850    -0.7380     0.8460 c6         1 AAI       0.166800
     18 C18          1.7420    -0.7360     0.9690 c6         1 AAI      -0.073900
     19 C19          5.2280     0.2410    -0.3710 c3         1 AAI       0.168800
     20 C20          5.9160     0.9060     0.8430 c3         1 AAI      -0.078400
     21 C21          7.4210     1.1520     0.6190 c3         1 AAI      -0.090100
     22 H2          -0.7590     0.9840     0.1430 hn         1 AAI       0.387000
     23 H7          -5.7910     0.4510     0.3300 ha         1 AAI       0.102000
     24 H8          -5.9190    -1.9740    -0.1170 ha         1 AAI       0.116000
     25 H9          -3.8340    -3.3180    -0.4890 ha         1 AAI       0.130000
     26 H111        -5.5060     2.3030     0.6620 hn         1 AAI       0.317000
     27 H112        -4.5360     3.7460     0.8770 hn         1 AAI       0.317000
     28 H13          1.3680    -2.1970    -0.5780 hc         1 AAI       0.081700
     29 H141         1.1930    -0.6080    -2.4780 hc         1 AAI       0.053700
     30 H142         1.2600     0.7720    -1.3840 hc         1 AAI       0.053700
     31 H151         3.4830    -1.3000    -1.8340 h1         1 AAI       0.033450
     32 H152         3.4760     0.3830    -2.3780 h1         1 AAI       0.033450
     33 H171         3.6330    -1.7700     0.6920 h1         1 AAI       0.033450
     34 H172         3.6970    -0.3970     1.8060 h1         1 AAI       0.033450
     35 H181         1.4080     0.2690     1.2620 hc         1 AAI       0.053700
     36 H182         1.4360    -1.4150     1.7770 hc         1 AAI       0.053700
     37 H191         5.6650    -0.7560    -0.5210 h1         1 AAI       0.029200
     38 H192         5.4830     0.8370    -1.2580 h1         1 AAI       0.029200
     39 H201         5.4260     1.8650     1.0550 hc         1 AAI       0.046200
     40 H202         5.7980     0.2780     1.7330 hc         1 AAI       0.046200
     41 H211         7.9440     0.2060     0.4310 hc         1 AAI       0.032700
     42 H212         7.5830     1.8140    -0.2410 hc         1 AAI       0.032700
     43 H213         7.8680     1.6220     1.5030 hc         1 AAI       0.032700
@<TRIPOS>BOND
     1     1     2 1   
     2     1     5 2   
     3     1    13 1   
     4     2     3 1   
     5     2    22 1   
     6     3     4 ar  
     7     3     6 ar  
     8     4     5 1   
     9     4     9 ar  
    10     6     7 ar  
    11     6    10 1   
    12     7     8 ar  
    13     7    23 1   
    14     8     9 ar  
    15     8    24 1   
    16     9    25 1   
    17    10    11 1   
    18    10    12 2   
    19    11    26 1   
    20    11    27 1   
    21    13    14 1   
    22    13    18 1   
    23    13    28 1   
    24    14    15 1   
    25    14    29 1   
    26    14    30 1   
    27    15    16 1   
    28    15    31 1   
    29    15    32 1   
    30    16    17 1   
    31    16    19 1   
    32    17    18 1   
    33    17    33 1   
    34    17    34 1   
    35    18    35 1   
    36    18    36 1   
    37    19    20 1   
    38    19    37 1   
    39    19    38 1   
    40    20    21 1   
    41    20    39 1   
    42    20    40 1   
    43    21    41 1   
    44    21    42 1   
    45    21    43 1   
@<TRIPOS>SUBSTRUCTURE
     1 AAI         1 TEMP              0 ****  ****    0 ROOT
