@<TRIPOS>MOLECULE
AAI
   43    45     1     0     0
SMALL
bcc


@<TRIPOS>ATOM
      1 C1          -0.4150    -1.0550    -0.2830 cc         1 AAI       0.429800
      2 N2          -1.1060     0.1010    -0.0810 na         1 AAI      -0.242300
      3 C3          -2.4320    -0.2110    -0.0000 ca         1 AAI      -0.034200
      4 C4          -2.4720    -1.6080    -0.1660 ca         1 AAI       0.054400
      5 N5          -1.1990    -2.0980    -0.3400 nd         1 AAI      -0.582100
      6 C6          -3.5820     0.5580     0.1950 ca         1 AAI      -0.159600
      7 C7          -4.7850    -0.1430     0.2140 ca         1 AAI      -0.081000
      8 C8          -4.8390    -1.5290     0.0490 ca         1 AAI      -0.172000
      9 C9          -3.6900    -2.2780    -0.1410 ca         1 AAI      -0.038000
     10 C10         -3.4500     2.0310     0.3600 c          1 AAI       0.698700
     11 N11         -4.5670     2.7360     0.5770 nt         1 AAI      -0.665000
     12 O12         -2.3450     2.5630     0.2950 o          1 AAI      -0.641100
     13 C13          1.0690    -1.0820    -0.3970 c6         1 AAI      -0.086000
     14 C14          1.5980    -0.1330    -1.4750 c6         1 AAI      -0.073900
     15 C15          3.1160    -0.1840    -1.5260 c6         1 AAI       0.166800
     16 N16          3.7050     0.1530    -0.2430 n3         1 AAI      -0.719600
     17 C17          3.2610    -0.7720     0.7840 c6         1 AAI       0.166800
     18 C18          1.7480    -0.7530     0.9350 c6         1 AAI      -0.073900
     19 C19          5.1520     0.2260    -0.3410 c3         1 AAI       0.168800
     20 C20          5.8310     0.8260     0.8840 c3         1 AAI      -0.078400
     21 C21          7.3110     1.0790     0.6330 c3         1 AAI      -0.090100
     22 H2          -0.7330     1.0330     0.0010 hn         1 AAI       0.336700
     23 H7          -5.7240     0.3760     0.3580 ha         1 AAI       0.120000
     24 H8          -5.8020    -2.0210     0.0720 ha         1 AAI       0.134000
     25 H9          -3.7370    -3.3520    -0.2660 ha         1 AAI       0.148000
     26 H111        -5.4810     2.3260     0.6430 hn         1 AAI       0.317000
     27 H112        -4.5080     3.7360     0.6830 hn         1 AAI       0.317000
     28 H13          1.3360    -2.1060    -0.6760 hc         1 AAI       0.081700
     29 H141         1.1920    -0.4020    -2.4530 hc         1 AAI       0.053700
     30 H142         1.2840     0.8940    -1.2660 hc         1 AAI       0.053700
     31 H151         3.4320    -1.1870    -1.8680 h1         1 AAI       0.033450
     32 H152         3.4730     0.5270    -2.2740 h1         1 AAI       0.033450
     33 H171         3.5940    -1.8040     0.5680 h1         1 AAI       0.033450
     34 H172         3.7080    -0.4950     1.7400 h1         1 AAI       0.033450
     35 H181         1.4360     0.2370     1.2830 hc         1 AAI       0.053700
     36 H182         1.4530    -1.4730     1.7020 hc         1 AAI       0.053700
     37 H191         5.5940    -0.7640    -0.5540 h1         1 AAI       0.029200
     38 H192         5.3900     0.8570    -1.2030 h1         1 AAI       0.029200
     39 H201         5.3300     1.7620     1.1450 hc         1 AAI       0.046200
     40 H202         5.7270     0.1640     1.7480 hc         1 AAI       0.046200
     41 H211         7.8290     0.1580     0.3560 hc         1 AAI       0.032700
     42 H212         7.4620     1.7970    -0.1750 hc         1 AAI       0.032700
     43 H213         7.8030     1.4750     1.5220 hc         1 AAI       0.032700
@<TRIPOS>BOND
     1     1     2 1   
     2     1     5 2   
     3     1    13 1   
     4     2     3 1   
     5     2    22 1   
     6     3     4 ar  
     7     3     6 ar  
     8     4     5 1   
     9     4     9 ar  
    10     6     7 ar  
    11     6    10 1   
    12     7     8 ar  
    13     7    23 1   
    14     8     9 ar  
    15     8    24 1   
    16     9    25 1   
    17    10    11 1   
    18    10    12 2   
    19    11    26 1   
    20    11    27 1   
    21    13    14 1   
    22    13    18 1   
    23    13    28 1   
    24    14    15 1   
    25    14    29 1   
    26    14    30 1   
    27    15    16 1   
    28    15    31 1   
    29    15    32 1   
    30    16    17 1   
    31    16    19 1   
    32    17    18 1   
    33    17    33 1   
    34    17    34 1   
    35    18    35 1   
    36    18    36 1   
    37    19    20 1   
    38    19    37 1   
    39    19    38 1   
    40    20    21 1   
    41    20    39 1   
    42    20    40 1   
    43    21    41 1   
    44    21    42 1   
    45    21    43 1   
@<TRIPOS>SUBSTRUCTURE
     1 AAI         1 TEMP              0 ****  ****    0 ROOT
