@<TRIPOS>MOLECULE
AAK
   43    44     1     0     0
SMALL
bcc


@<TRIPOS>ATOM
      1 C12         -0.0170    -2.5380     0.5920 ca         1 AAK      -0.114000
      2 C11          0.3230    -1.2220     0.2670 ca         1 AAK       0.033600
      3 O2           4.1240     0.0570     0.5140 o          1 AAK      -0.566100
      4 O1          -2.6590     0.6990     0.3000 os         1 AAK      -0.452900
      5 C7           3.3140     0.8060     0.0050 c          1 AAK       0.670100
      6 C8           3.6580     2.2600    -0.2570 c3         1 AAK      -0.154400
      7 C9           5.1380     2.5520    -0.0720 c3         1 AAK      -0.078100
      8 N1           2.0610     0.3810    -0.3800 n          1 AAK      -0.384000
      9 C6           0.9770     1.3170    -0.6210 c6         1 AAK       0.066000
     10 C5          -0.0560     1.1610     0.4780 c6         1 AAK       0.079000
     11 C10          1.6390    -0.9500    -0.1600 ca         1 AAK       0.020600
     12 C15          2.5060    -2.0190    -0.3940 ca         1 AAK      -0.108000
     13 C14          2.1310    -3.3210    -0.1240 ca         1 AAK      -0.129000
     14 C13          0.8740    -3.5770     0.4050 ca         1 AAK      -0.126000
     15 N           -0.6190    -0.1790     0.3980 n          1 AAK      -0.374000
     16 C           -1.9380    -0.3820     0.0480 c          1 AAK       0.772100
     17 O           -2.3680    -1.4160    -0.4080 o          1 AAK      -0.569000
     18 C1          -4.0730     0.8050    -0.0370 c3         1 AAK       0.201800
     19 C4          -4.2900     0.6480    -1.5370 c3         1 AAK      -0.109767
     20 C3          -4.8970    -0.1880     0.7710 c3         1 AAK      -0.109767
     21 C2          -4.4160     2.2270     0.3900 c3         1 AAK      -0.109767
     22 H1          -0.9900    -2.7550     1.0040 ha         1 AAK       0.150000
     23 H2           3.3460     2.5400    -1.2660 hc         1 AAK       0.057700
     24 H3           3.0780     2.8930     0.4230 hc         1 AAK       0.057700
     25 H4           5.4680     2.3520     0.9460 hc         1 AAK       0.044033
     26 H5           5.7530     1.9620    -0.7490 hc         1 AAK       0.044033
     27 H6           5.3280     3.6040    -0.2820 hc         1 AAK       0.044033
     28 H7           1.3420     2.3370    -0.6340 h1         1 AAK       0.063200
     29 H8           0.5250     1.1210    -1.5960 h1         1 AAK       0.063200
     30 H9           0.4080     1.3160     1.4550 h1         1 AAK       0.071200
     31 H10         -0.8340     1.9070     0.3610 h1         1 AAK       0.071200
     32 H11          3.4860    -1.8310    -0.8040 ha         1 AAK       0.150000
     33 H12          2.8240    -4.1290    -0.3170 ha         1 AAK       0.135000
     34 H13          0.5770    -4.5850     0.6620 ha         1 AAK       0.134000
     35 H14         -4.1190    -0.3690    -1.8830 hc         1 AAK       0.050700
     36 H15         -5.3210     0.9090    -1.7740 hc         1 AAK       0.050700
     37 H16         -3.6420     1.3230    -2.0990 hc         1 AAK       0.050700
     38 H17         -4.7040    -0.0770     1.8390 hc         1 AAK       0.050700
     39 H18         -5.9570     0.0130     0.6060 hc         1 AAK       0.050700
     40 H19         -4.7070    -1.2200     0.4860 hc         1 AAK       0.050700
     41 H20         -3.8290     2.9630    -0.1610 hc         1 AAK       0.050700
     42 H21         -5.4700     2.4230     0.1940 hc         1 AAK       0.050700
     43 H22         -4.2410     2.3720     1.4570 hc         1 AAK       0.050700
@<TRIPOS>BOND
     1     1     2 ar  
     2     1    14 ar  
     3     1    22 1   
     4     2    11 ar  
     5     2    15 1   
     6     3     5 2   
     7     4    16 1   
     8     4    18 1   
     9     5     6 1   
    10     5     8 1   
    11     6     7 1   
    12     6    23 1   
    13     6    24 1   
    14     7    25 1   
    15     7    26 1   
    16     7    27 1   
    17     8     9 1   
    18     8    11 1   
    19     9    10 1   
    20     9    28 1   
    21     9    29 1   
    22    10    15 1   
    23    10    30 1   
    24    10    31 1   
    25    11    12 ar  
    26    12    13 ar  
    27    12    32 1   
    28    13    14 ar  
    29    13    33 1   
    30    14    34 1   
    31    15    16 1   
    32    16    17 2   
    33    18    19 1   
    34    18    20 1   
    35    18    21 1   
    36    19    35 1   
    37    19    36 1   
    38    19    37 1   
    39    20    38 1   
    40    20    39 1   
    41    20    40 1   
    42    21    41 1   
    43    21    42 1   
    44    21    43 1   
@<TRIPOS>SUBSTRUCTURE
     1 AAK         1 TEMP              0 ****  ****    0 ROOT
