@<TRIPOS>MOLECULE
AAK
   43    44     1     0     0
SMALL
No Charge or Current Charge


@<TRIPOS>ATOM
      1 C12         -0.0210    -2.6080     0.5020 ca         1 AAK      -0.096000
      2 C11          0.3290    -1.2400     0.4170 ca         1 AAK      -0.059000
      3 O2           4.2050     0.2810     0.9470 o          1 AAK      -0.566100
      4 O1          -2.8150     0.7210     0.2310 os         1 AAK      -0.476100
      5 C7           3.4170     0.9420     0.2790 c          1 AAK       0.603100
      6 C8           3.8690     2.2760    -0.3580 c3         1 AAK      -0.154400
      7 C9           5.3740     2.3540    -0.7080 c3         1 AAK      -0.078100
      8 N1           2.0820     0.5050     0.0410 n          1 AAK      -0.224400
      9 C6           1.0020     1.5210    -0.0510 c6         1 AAK       0.066000
     10 C5          -0.1940     1.1350     0.8340 c6         1 AAK       0.079000
     11 C10          1.6630    -0.8920     0.0490 ca         1 AAK      -0.072000
     12 C15          2.6120    -1.9260    -0.1400 ca         1 AAK      -0.090000
     13 C14          2.2490    -3.2740    -0.0210 ca         1 AAK      -0.111000
     14 C13          0.9330    -3.6160     0.3030 ca         1 AAK      -0.108000
     15 N           -0.6910    -0.2070     0.4400 n          1 AAK      -0.214400
     16 C           -2.0340    -0.3900    -0.0100 c          1 AAK       0.656100
     17 O           -2.4380    -1.4080    -0.5540 o          1 AAK      -0.520000
     18 C1          -4.2120     0.8020    -0.1370 c3         1 AAK       0.225000
     19 C4          -4.3540     0.6940    -1.6770 c3         1 AAK      -0.109767
     20 C3          -5.0200    -0.2760     0.6300 c3         1 AAK      -0.109767
     21 C2          -4.6400     2.2110     0.3310 c3         1 AAK      -0.109767
     22 H1          -1.0340    -2.9080     0.7580 ha         1 AAK       0.132000
     23 H2           3.2520     2.4880    -1.2390 hc         1 AAK       0.057700
     24 H3           3.6090     3.0780     0.3420 hc         1 AAK       0.057700
     25 H4           5.9920     2.2470     0.1920 hc         1 AAK       0.044033
     26 H5           5.6490     1.5620    -1.4140 hc         1 AAK       0.044033
     27 H6           5.6090     3.3210    -1.1690 hc         1 AAK       0.044033
     28 H7           1.3580     2.5080     0.2720 h1         1 AAK       0.063200
     29 H8           0.6750     1.6060    -1.0970 h1         1 AAK       0.063200
     30 H9           0.1260     1.0990     1.8850 h1         1 AAK       0.071200
     31 H10         -0.9540     1.9210     0.7520 h1         1 AAK       0.071200
     32 H11          3.6400    -1.6980    -0.4100 ha         1 AAK       0.132000
     33 H12          2.9910    -4.0540    -0.1810 ha         1 AAK       0.117000
     34 H13          0.6470    -4.6620     0.3930 ha         1 AAK       0.116000
     35 H14         -4.1970    -0.3300    -2.0340 hc         1 AAK       0.050700
     36 H15         -5.3620     0.9930    -1.9890 hc         1 AAK       0.050700
     37 H16         -3.6360     1.3510    -2.1820 hc         1 AAK       0.050700
     38 H17         -4.7540    -0.2780     1.6930 hc         1 AAK       0.050700
     39 H18         -6.0950    -0.0750     0.5500 hc         1 AAK       0.050700
     40 H19         -4.8500    -1.2810     0.2280 hc         1 AAK       0.050700
     41 H20         -4.0460     2.9850    -0.1690 hc         1 AAK       0.050700
     42 H21         -5.6970     2.3940     0.1020 hc         1 AAK       0.050700
     43 H22         -4.5030     2.3200     1.4130 hc         1 AAK       0.050700
@<TRIPOS>BOND
     1     1     2 ar  
     2     1    14 ar  
     3     1    22 1   
     4     2    11 ar  
     5     2    15 1   
     6     3     5 2   
     7     4    16 1   
     8     4    18 1   
     9     5     6 1   
    10     5     8 1   
    11     6     7 1   
    12     6    23 1   
    13     6    24 1   
    14     7    25 1   
    15     7    26 1   
    16     7    27 1   
    17     8     9 1   
    18     8    11 1   
    19     9    10 1   
    20     9    28 1   
    21     9    29 1   
    22    10    15 1   
    23    10    30 1   
    24    10    31 1   
    25    11    12 ar  
    26    12    13 ar  
    27    12    32 1   
    28    13    14 ar  
    29    13    33 1   
    30    14    34 1   
    31    15    16 1   
    32    16    17 2   
    33    18    19 1   
    34    18    20 1   
    35    18    21 1   
    36    19    35 1   
    37    19    36 1   
    38    19    37 1   
    39    20    38 1   
    40    20    39 1   
    41    20    40 1   
    42    21    41 1   
    43    21    42 1   
    44    21    43 1   
@<TRIPOS>SUBSTRUCTURE
     1 AAK         1 TEMP              0 ****  ****    0 ROOT
