@<TRIPOS>MOLECULE
AAL
   21    22     1     0     0
SMALL
bcc


@<TRIPOS>ATOM
      1 C1          12.1670    15.9280    11.1040 c6         1 AAL       0.353900
      2 C2          10.9710    15.5370    11.9790 c6         1 AAL       0.102100
      3 C3          10.0970    14.5450    11.1960 c5         1 AAL       0.099100
      4 C4           9.6110    15.2070     9.9180 c5         1 AAL       0.082100
      5 C5          10.9530    15.1940     9.1810 c5         1 AAL       0.092100
      6 C6          11.4070    13.7650     9.4580 c5         1 AAL       0.090400
      7 O1          12.7520    17.0700    11.6050 oh         1 AAL      -0.552800
      8 O2          10.2520    16.6890    12.3350 oh         1 AAL      -0.562800
      9 O3          10.8980    13.4550    10.7550 os         1 AAL      -0.398600
     10 O4           8.6450    14.3850     9.3180 oh         1 AAL      -0.580800
     11 O5          11.7910    16.1770     9.7580 os         1 AAL      -0.432600
     12 H1          12.8790    15.0900    11.1270 h2         1 AAL       0.031700
     13 H2          11.3700    15.0290    12.8680 h1         1 AAL       0.056700
     14 H3           9.2880    14.1580    11.8230 h1         1 AAL       0.094700
     15 H4           9.2430    16.2250    10.0790 h1         1 AAL       0.084700
     16 H5          10.8840    15.4150     8.1140 h1         1 AAL       0.093700
     17 H61         10.9880    13.0790     8.7160 h1         1 AAL       0.060700
     18 H62         12.4950    13.6540     9.4380 h1         1 AAL       0.060700
     19 HO1         13.6560    17.1300    11.2770 ho         1 AAL       0.414000
     20 HO2          9.5300    16.4260    12.9150 ho         1 AAL       0.402000
     21 HO4          8.3970    14.7760     8.4740 ho         1 AAL       0.409000
@<TRIPOS>BOND
     1     1     2 1   
     2     1     7 1   
     3     1    11 1   
     4     1    12 1   
     5     2     3 1   
     6     2     8 1   
     7     2    13 1   
     8     3     4 1   
     9     3     9 1   
    10     3    14 1   
    11     4     5 1   
    12     4    10 1   
    13     4    15 1   
    14     5     6 1   
    15     5    11 1   
    16     5    16 1   
    17     6     9 1   
    18     6    17 1   
    19     6    18 1   
    20     7    19 1   
    21     8    20 1   
    22    10    21 1   
@<TRIPOS>SUBSTRUCTURE
     1 AAL         1 TEMP              0 ****  ****    0 ROOT
