@<TRIPOS>MOLECULE
AAL
   21    22     1     0     0
SMALL
No Charge or Current Charge


@<TRIPOS>ATOM
      1 C1          12.1090    15.8250    11.3250 c6         1 AAL       0.400300
      2 C2          10.8190    15.3430    12.0790 c6         1 AAL       0.125300
      3 C3           9.9950    14.4150    11.1340 c5         1 AAL       0.122300
      4 C4           9.5870    15.1660     9.8280 c5         1 AAL       0.105300
      5 C5          11.0060    15.2060     9.1810 c5         1 AAL       0.115300
      6 C6          11.4960    13.7400     9.4350 c5         1 AAL       0.113600
      7 O1          12.6190    17.0140    11.9090 oh         1 AAL      -0.615000
      8 O2          10.0090    16.4740    12.4830 oh         1 AAL      -0.685000
      9 O3          10.8200    13.3130    10.6530 os         1 AAL      -0.445000
     10 O4           8.6160    14.4460     9.0390 oh         1 AAL      -0.703000
     11 O5          11.8610    16.1310     9.9360 os         1 AAL      -0.479000
     12 H1          12.8690    15.0310    11.3820 h2         1 AAL       0.031700
     13 H2          11.1300    14.7670    12.9620 h1         1 AAL       0.056700
     14 H3           9.1270    14.0210    11.6800 h1         1 AAL       0.094700
     15 H4           9.2210    16.1810    10.0420 h1         1 AAL       0.084700
     16 H5          10.9980    15.4870     8.1190 h1         1 AAL       0.093700
     17 H61         11.1930    13.0730     8.6160 h1         1 AAL       0.060700
     18 H62         12.5850    13.6660     9.5540 h1         1 AAL       0.060700
     19 HO1         13.2260    17.3750    11.2280 ho         1 AAL       0.453000
     20 HO2         10.6530    17.2210    12.5510 ho         1 AAL       0.501000
     21 HO4          8.3340    15.0390     8.3030 ho         1 AAL       0.508000
@<TRIPOS>BOND
     1     1     2 1   
     2     1     7 1   
     3     1    11 1   
     4     1    12 1   
     5     2     3 1   
     6     2     8 1   
     7     2    13 1   
     8     3     4 1   
     9     3     9 1   
    10     3    14 1   
    11     4     5 1   
    12     4    10 1   
    13     4    15 1   
    14     5     6 1   
    15     5    11 1   
    16     5    16 1   
    17     6     9 1   
    18     6    17 1   
    19     6    18 1   
    20     7    19 1   
    21     8    20 1   
    22    10    21 1   
@<TRIPOS>SUBSTRUCTURE
     1 AAL         1 TEMP              0 ****  ****    0 ROOT
