@<TRIPOS>MOLECULE
AAN
   19    19     1     0     0
SMALL
No Charge or Current Charge


@<TRIPOS>ATOM
      1 C1          -0.0470     0.3030     3.3130 c          1 AAN       0.730000
      2 C2          -0.1650    -1.0010     2.5190 c3         1 AAN      -0.212100
      3 C7          -0.0780    -0.6870     1.0310 ca         1 AAN       0.070700
      4 C8           1.1670    -0.6760     0.3760 ca         1 AAN      -0.131500
      5 C3           1.2510    -0.3910    -0.9980 ca         1 AAN      -0.046500
      6 C4           0.0810    -0.1110    -1.7420 ca         1 AAN      -0.222200
      7 N4           0.1650     0.1930    -3.2080 no         1 AAN       0.703200
      8 O3          -0.8850     0.4320    -3.8190 o          1 AAN      -0.436000
      9 O4           1.2820     0.1910    -3.7440 o          1 AAN      -0.436000
     10 C5          -1.1690    -0.1220    -1.0810 ca         1 AAN      -0.046500
     11 C6          -1.2430    -0.4090     0.2930 ca         1 AAN      -0.131500
     12 O1          -1.0680     0.9400     3.5230 o          1 AAN      -0.713000
     13 O2           1.0720     0.7030     3.5970 o          1 AAN      -0.713000
     14 H21          0.6730    -1.6660     2.7590 hc         1 AAN       0.041200
     15 H22         -1.1420    -1.4650     2.6970 hc         1 AAN       0.041200
     16 H2           2.0750    -0.8880     0.9340 ha         1 AAN       0.121500
     17 H3           2.2300    -0.3900    -1.4750 ha         1 AAN       0.129500
     18 H5          -2.0890     0.0890    -1.6240 ha         1 AAN       0.129500
     19 H6          -2.2120    -0.4110     0.7870 ha         1 AAN       0.121500
@<TRIPOS>BOND
     1     1     2 1   
     2     1    12 1   
     3     1    13 1   
     4     2     3 1   
     5     2    14 1   
     6     2    15 1   
     7     3     4 ar  
     8     3    11 ar  
     9     4     5 ar  
    10     4    16 1   
    11     5     6 ar  
    12     5    17 1   
    13     6     7 1   
    14     6    10 ar  
    15     7     8 1   
    16     7     9 1   
    17    10    11 ar  
    18    10    18 1   
    19    11    19 1   
@<TRIPOS>SUBSTRUCTURE
     1 AAN         1 TEMP              0 ****  ****    0 ROOT
