@<TRIPOS>MOLECULE
AAN
   19    19     1     0     0
SMALL
abcg2


@<TRIPOS>ATOM
      1 C1          -0.0300     0.3140     3.3280 c          1 AAN       0.730000
      2 C2           0.0430    -0.9700     2.4520 c3         1 AAN      -0.212100
      3 C7           0.0210    -0.6870     0.9890 ca         1 AAN       0.070700
      4 C8           1.2060    -0.5540     0.2670 ca         1 AAN      -0.131500
      5 C3           1.1980    -0.2610    -1.0850 ca         1 AAN      -0.046500
      6 C4          -0.0220    -0.1010    -1.7280 ca         1 AAN      -0.222200
      7 N4          -0.0440     0.2060    -3.1430 no         1 AAN       0.703200
      8 O3          -1.1190     0.3360    -3.6850 o          1 AAN      -0.436000
      9 O4           1.0130     0.3200    -3.7220 o          1 AAN      -0.436000
     10 C5          -1.2220    -0.2340    -1.0400 ca         1 AAN      -0.046500
     11 C6          -1.1870    -0.5240     0.3110 ca         1 AAN      -0.131500
     12 O1          -0.1200     1.4030     2.7380 o          1 AAN      -0.713000
     13 O2           0.0070     0.1150     4.5560 o          1 AAN      -0.713000
     14 H21          0.9510    -1.5160     2.7200 hc         1 AAN       0.041200
     15 H22         -0.7940    -1.6180     2.7260 hc         1 AAN       0.041200
     16 H2           2.1560    -0.6860     0.7690 ha         1 AAN       0.121500
     17 H3           2.1310    -0.1630    -1.6210 ha         1 AAN       0.129500
     18 H5          -2.1710    -0.1140    -1.5420 ha         1 AAN       0.129500
     19 H6          -2.1210    -0.6320     0.8480 ha         1 AAN       0.121500
@<TRIPOS>BOND
     1     1     2 1   
     2     1    12 1   
     3     1    13 1   
     4     2     3 1   
     5     2    14 1   
     6     2    15 1   
     7     3     4 ar  
     8     3    11 ar  
     9     4     5 ar  
    10     4    16 1   
    11     5     6 ar  
    12     5    17 1   
    13     6     7 1   
    14     6    10 ar  
    15     7     8 1   
    16     7     9 1   
    17    10    11 ar  
    18    10    18 1   
    19    11    19 1   
@<TRIPOS>SUBSTRUCTURE
     1 AAN         1 TEMP              0 ****  ****    0 ROOT
