@<TRIPOS>MOLECULE
AAO
  129   134     1     0     0
SMALL
abcg2


@<TRIPOS>ATOM
      1 C1A          8.0110    -2.3180    -1.6430 c6         1 AAO       0.363300
      2 C2A          7.6050    -3.7560    -1.9730 c6         1 AAO       0.118300
      3 C3A          6.9850    -4.4100    -0.7410 c6         1 AAO       0.106300
      4 C4A          7.9610    -4.3200     0.4260 c6         1 AAO       0.150300
      5 C5A          8.3550    -2.8600     0.6530 c6         1 AAO       0.168300
      6 C6A          9.4330    -2.7180     1.7070 c3         1 AAO       0.168600
      7 O2A          6.7760    -3.8460    -3.1000 oh         1 AAO      -0.728000
      8 O3A          6.7150    -5.7760    -0.9600 oh         1 AAO      -0.669000
      9 O4A          7.3970    -4.8060     1.6190 oh         1 AAO      -0.721000
     10 O5A          8.8700    -2.3000    -0.5470 os         1 AAO      -0.455000
     11 O6A          9.6650    -1.3480     1.9360 oh         1 AAO      -0.721000
     12 C1B          5.0930     2.0520    -2.4130 c6         1 AAO       0.360300
     13 C2B          5.0290     0.9340    -3.4540 c6         1 AAO       0.124300
     14 C3B          5.3090    -0.4030    -2.7770 c6         1 AAO       0.139300
     15 C4B          6.6600    -0.3460    -2.0770 c6         1 AAO       0.161300
     16 C5B          6.6710     0.8310    -1.0920 c6         1 AAO       0.151300
     17 C6B          8.0330     1.0560    -0.4720 c3         1 AAO       0.161600
     18 O2B          3.8210     0.8930    -4.1660 oh         1 AAO      -0.736000
     19 O3B          5.3500    -1.4510    -3.7200 oh         1 AAO      -0.733000
     20 O4B          6.8530    -1.5680    -1.4010 os         1 AAO      -0.496000
     21 O5B          6.3280     2.0330    -1.7680 os         1 AAO      -0.452000
     22 O6B          7.9310     2.0920     0.4780 oh         1 AAO      -0.720000
     23 C1C         -3.5890     2.5840     2.9810 c6         1 AAO       0.366300
     24 C2C         -3.3470     3.9900     2.4350 c6         1 AAO       0.107300
     25 C3C         -2.3910     3.9210     1.2480 c6         1 AAO       0.145300
     26 C4C         -1.1000     3.2080     1.6420 c6         1 AAO       0.166500
     27 C5C         -1.4210     1.8550     2.2970 c6         1 AAO       0.159300
     28 C6C         -0.2050     1.2090     2.9330 c3         1 AAO      -0.096100
     29 O2C         -4.5380     4.6630     2.1270 oh         1 AAO      -0.726000
     30 O3C         -2.0650     5.2100     0.7860 oh         1 AAO      -0.655000
     31 O5C         -2.3780     2.0010     3.3400 os         1 AAO      -0.461000
     32 N4C         -0.2660     2.9980     0.4640 n7         1 AAO      -0.900400
     33 C1H          0.8100     3.9610     0.2220 c6         1 AAO       0.176700
     34 C2H          1.0230     4.0740    -1.2940 c6         1 AAO       0.147300
     35 C3H          1.8990     2.9220    -1.7690 c6         1 AAO       0.122300
     36 C4H          3.2800     3.0370    -1.1510 c6         1 AAO       0.221500
     37 C5H          3.1870     3.1630     0.3500 c2         1 AAO      -0.114400
     38 C6H          2.0790     3.6070     0.9410 c2         1 AAO      -0.238200
     39 C7H          4.4330     2.8120     1.1080 c3         1 AAO       0.197800
     40 O2H         -0.2090     4.0790    -1.9640 oh         1 AAO      -0.664000
     41 O3H          2.0520     2.9230    -3.1720 oh         1 AAO      -0.738000
     42 O4H          4.0340     1.8940    -1.5140 os         1 AAO      -0.495000
     43 O7H          4.3430     3.2520     2.4380 oh         1 AAO      -0.668000
     44 C1G         -7.5630    -0.5760     1.4280 c6         1 AAO       0.364300
     45 C2G         -7.7580     0.9240     1.2020 c6         1 AAO       0.116300
     46 C3G         -6.4000     1.6070     1.0640 c6         1 AAO       0.135300
     47 C4G         -5.5150     1.2780     2.2600 c6         1 AAO       0.164300
     48 C5G         -5.4390    -0.2430     2.4530 c6         1 AAO       0.148300
     49 C6G         -4.7220    -0.6270     3.7300 c3         1 AAO       0.163600
     50 O1G         -7.0040    -1.1370     0.2750 os         1 AAO      -0.495000
     51 O2G         -8.6020     1.2060     0.1200 oh         1 AAO      -0.726000
     52 O3G         -6.5470     3.0100     1.0050 oh         1 AAO      -0.733000
     53 O4G         -4.2370     1.8140     2.0040 os         1 AAO      -0.501000
     54 O5G         -6.7490    -0.7860     2.5380 os         1 AAO      -0.449000
     55 C1T         -7.5320    -4.3290    -2.3250 c6         1 AAO       0.358300
     56 C2T         -8.3520    -3.0670    -2.5930 c6         1 AAO       0.119300
     57 C3T         -7.7600    -1.8850    -1.8380 c6         1 AAO       0.165300
     58 C4T         -7.6460    -2.2220    -0.3580 c6         1 AAO       0.160300
     59 C5T         -6.8540    -3.5230    -0.1790 c6         1 AAO       0.151300
     60 C6T         -6.8350    -3.9920     1.2600 c3         1 AAO       0.162600
     61 O2T         -8.3980    -2.7300    -3.9560 oh         1 AAO      -0.706000
     62 O3T         -8.5800    -0.7430    -1.9580 oh         1 AAO      -0.738000
     63 O5T         -7.4600    -4.5540    -0.9410 os         1 AAO      -0.467000
     64 O6T         -6.0600    -5.1670     1.3380 oh         1 AAO      -0.712000
     65 H1A          8.5790    -1.8870    -2.4770 h2         1 AAO       0.083700
     66 H2A          8.5260    -4.2990    -2.2160 h1         1 AAO       0.086700
     67 H3A          6.0640    -3.8740    -0.4680 h1         1 AAO       0.057700
     68 H4A          8.8680    -4.8860     0.1560 h1         1 AAO       0.049700
     69 H5A          7.4680    -2.3020     0.9850 h1         1 AAO       0.073700
     70 H6A1         9.0960    -3.2280     2.6150 h1         1 AAO       0.037700
     71 H6A2        10.3410    -3.2360     1.3640 h1         1 AAO       0.037700
     72 H11          6.1620    -3.0930    -3.1260 ho         1 AAO       0.541000
     73 H10          6.0440    -5.8430    -1.6470 ho         1 AAO       0.464000
     74 H9           7.1200    -5.7160     1.4690 ho         1 AAO       0.526000
     75 H6A         10.2760    -1.2680     2.6730 ho         1 AAO       0.504000
     76 H1B          5.0370     3.0290    -2.9080 h2         1 AAO       0.088700
     77 H2B          5.8410     1.1230    -4.1700 h1         1 AAO       0.076700
     78 H3B          4.5330    -0.5980    -2.0220 h1         1 AAO       0.061700
     79 H4B          7.4470    -0.1910    -2.8290 h1         1 AAO       0.060700
     80 H5B          5.9490     0.6180    -0.2930 h1         1 AAO       0.069700
     81 H6B1         8.3740     0.1270    -0.0110 h1         1 AAO       0.044700
     82 H6B2         8.7480     1.3020    -1.2700 h1         1 AAO       0.044700
     83 H13          3.1580     1.4680    -3.7500 ho         1 AAO       0.545000
     84 H12          4.4720    -1.5480    -4.1050 ho         1 AAO       0.530000
     85 H6B          8.7660     2.1400     0.9520 ho         1 AAO       0.507000
     86 H1C         -4.1910     2.6310     3.8970 h2         1 AAO       0.079700
     87 H2C         -2.8640     4.5680     3.2320 h1         1 AAO       0.091700
     88 H3C         -2.8600     3.3320     0.4450 h1         1 AAO       0.050700
     89 H4C         -0.5770     3.8240     2.3910 h1         1 AAO       0.060700
     90 H5C         -1.8200     1.1880     1.5200 h1         1 AAO       0.058700
     91 H6C1        -0.4590     0.2320     3.3430 hc         1 AAO       0.049367
     92 H6C2         0.5940     1.0560     2.2070 hc         1 AAO       0.049367
     93 H6C3         0.1890     1.8320     3.7370 hc         1 AAO       0.049367
     94 H6          -5.1120     4.0940     1.5850 ho         1 AAO       0.538000
     95 H7          -2.8820     5.6410     0.5130 ho         1 AAO       0.459000
     96 H8           0.1120     2.0590     0.4530 hn         1 AAO       0.426000
     97 H1H          0.4540     4.9280     0.5830 h1         1 AAO       0.098700
     98 H2H          1.5370     5.0170    -1.5140 h1         1 AAO       0.078700
     99 H3H          1.4560     1.9680    -1.4400 h1         1 AAO       0.046700
    100 H4H          3.7710     3.9420    -1.5410 h1         1 AAO       0.066700
    101 H6H          2.0540     3.7130     2.0190 ha         1 AAO       0.201000
    102 H7H1         4.5760     1.7250     1.0570 h1         1 AAO       0.046700
    103 H7H2         5.2990     3.2520     0.5940 h1         1 AAO       0.046700
    104 H15         -0.7930     3.5620    -1.3780 ho         1 AAO       0.477000
    105 H14          1.1720     2.8980    -3.5670 ho         1 AAO       0.532000
    106 H7H          5.0800     2.8720     2.9250 ho         1 AAO       0.452000
    107 H1G         -8.5240    -1.0490     1.6630 h2         1 AAO       0.083700
    108 H2G         -8.2510     1.3240     2.0960 h1         1 AAO       0.090700
    109 H3G         -5.9030     1.2380     0.1550 h1         1 AAO       0.061700
    110 H4G         -5.9530     1.7300     3.1630 h1         1 AAO       0.060700
    111 H5G         -4.8960    -0.6770     1.6030 h1         1 AAO       0.078700
    112 H6G1        -3.7310    -0.1620     3.7250 h1         1 AAO       0.036700
    113 H6G2        -5.2710    -0.2160     4.5890 h1         1 AAO       0.036700
    114 H2          -8.3920     0.6230    -0.6290 ho         1 AAO       0.540000
    115 H1          -6.9930     3.2390     0.1820 ho         1 AAO       0.528000
    116 H6G         -4.0940    -2.2600     4.5510 ho         1 AAO       0.506000
    117 H1T         -8.0580    -5.2070    -2.7200 h2         1 AAO       0.063700
    118 H2T         -9.3610    -3.2510    -2.1970 h1         1 AAO       0.053700
    119 H3T         -6.7520    -1.6760    -2.2240 h1         1 AAO       0.077700
    120 H4T         -8.6580    -2.3640     0.0490 h1         1 AAO       0.057700
    121 H5T         -5.8190    -3.3520    -0.5090 h1         1 AAO       0.076700
    122 H6T1        -6.4160    -3.2010     1.8880 h1         1 AAO       0.041200
    123 H6T2        -7.8690    -4.1630     1.5940 h1         1 AAO       0.041200
    124 H4          -9.0740    -3.2620    -4.3860 ho         1 AAO       0.511000
    125 H3          -8.5910    -0.4670    -2.8810 ho         1 AAO       0.530000
    126 H6T         -5.9910    -5.4140     2.2640 ho         1 AAO       0.506000
    127 O6G         -4.6300    -2.0300     3.7870 oh         1 AAO      -0.714000
    128 O1T         -6.2840    -4.1840    -2.9160 oh         1 AAO      -0.722000
    129 H5          -5.8440    -5.0400    -2.9380 ho         1 AAO       0.520000
@<TRIPOS>BOND
     1     1     2 1   
     2     1    10 1   
     3     1    20 1   
     4     1    65 1   
     5     2     3 1   
     6     2     7 1   
     7     2    66 1   
     8     3     4 1   
     9     3     8 1   
    10     3    67 1   
    11     4     5 1   
    12     4     9 1   
    13     4    68 1   
    14     5     6 1   
    15     5    10 1   
    16     5    69 1   
    17     6    11 1   
    18     6    70 1   
    19     6    71 1   
    20     7    72 1   
    21     8    73 1   
    22     9    74 1   
    23    11    75 1   
    24    12    13 1   
    25    12    21 1   
    26    12    42 1   
    27    12    76 1   
    28    13    14 1   
    29    13    18 1   
    30    13    77 1   
    31    14    15 1   
    32    14    19 1   
    33    14    78 1   
    34    15    16 1   
    35    15    20 1   
    36    15    79 1   
    37    16    17 1   
    38    16    21 1   
    39    16    80 1   
    40    17    22 1   
    41    17    81 1   
    42    17    82 1   
    43    18    83 1   
    44    19    84 1   
    45    22    85 1   
    46    23    24 1   
    47    23    31 1   
    48    23    53 1   
    49    23    86 1   
    50    24    25 1   
    51    24    29 1   
    52    24    87 1   
    53    25    26 1   
    54    25    30 1   
    55    25    88 1   
    56    26    27 1   
    57    26    32 1   
    58    26    89 1   
    59    27    28 1   
    60    27    31 1   
    61    27    90 1   
    62    28    91 1   
    63    28    92 1   
    64    28    93 1   
    65    29    94 1   
    66    30    95 1   
    67    32    33 1   
    68    32    96 1   
    69    33    34 1   
    70    33    38 1   
    71    33    97 1   
    72    34    35 1   
    73    34    40 1   
    74    34    98 1   
    75    35    36 1   
    76    35    41 1   
    77    35    99 1   
    78    36    37 1   
    79    36    42 1   
    80    36   100 1   
    81    37    38 2   
    82    37    39 1   
    83    38   101 1   
    84    39    43 1   
    85    39   102 1   
    86    39   103 1   
    87    40   104 1   
    88    41   105 1   
    89    43   106 1   
    90    44    45 1   
    91    44    50 1   
    92    44    54 1   
    93    44   107 1   
    94    45    46 1   
    95    45    51 1   
    96    45   108 1   
    97    46    47 1   
    98    46    52 1   
    99    46   109 1   
   100    47    48 1   
   101    47    53 1   
   102    47   110 1   
   103    48    49 1   
   104    48    54 1   
   105    48   111 1   
   106    49   112 1   
   107    49   113 1   
   108    49   127 1   
   109    50    58 1   
   110    51   114 1   
   111    52   115 1   
   112    55    56 1   
   113    55    63 1   
   114    55   117 1   
   115    55   128 1   
   116    56    57 1   
   117    56    61 1   
   118    56   118 1   
   119    57    58 1   
   120    57    62 1   
   121    57   119 1   
   122    58    59 1   
   123    58   120 1   
   124    59    60 1   
   125    59    63 1   
   126    59   121 1   
   127    60    64 1   
   128    60   122 1   
   129    60   123 1   
   130    61   124 1   
   131    62   125 1   
   132    64   126 1   
   133   116   127 1   
   134   128   129 1   
@<TRIPOS>SUBSTRUCTURE
     1 AAO         1 TEMP              0 ****  ****    0 ROOT
