@<TRIPOS>MOLECULE
AAO
  129   134     1     0     0
SMALL
No Charge or Current Charge


@<TRIPOS>ATOM
      1 C1A          9.1630    -2.0810    -1.5990 c6         1 AAO       0.363300
      2 C2A          8.6910    -3.5510    -1.3210 c6         1 AAO       0.118300
      3 C3A          9.1070    -3.9640     0.1200 c6         1 AAO       0.106300
      4 C4A         10.6350    -3.7520     0.3230 c6         1 AAO       0.150300
      5 C5A         10.9970    -2.2670     0.0020 c6         1 AAO       0.168300
      6 C6A         12.5320    -1.9880     0.1250 c3         1 AAO       0.168600
      7 O2A          7.2610    -3.7250    -1.4900 oh         1 AAO      -0.728000
      8 O3A          8.7420    -5.3330     0.3730 oh         1 AAO      -0.669000
      9 O4A         10.9890    -4.1270     1.6660 oh         1 AAO      -0.721000
     10 O5A         10.5770    -1.9350    -1.3520 os         1 AAO      -0.455000
     11 O6A         12.8990    -0.6330    -0.2140 oh         1 AAO      -0.721000
     12 C1B          5.6770     1.9570    -1.8940 c6         1 AAO       0.360300
     13 C2B          5.7530     0.7060    -2.8370 c6         1 AAO       0.124300
     14 C3B          6.4000    -0.4760    -2.0680 c6         1 AAO       0.139300
     15 C4B          7.8000    -0.0490    -1.5160 c6         1 AAO       0.161300
     16 C5B          7.6170     1.2050    -0.6110 c6         1 AAO       0.151300
     17 C6B          8.9820     1.7300    -0.0550 c3         1 AAO       0.161600
     18 O2B          4.4620     0.2970    -3.3550 oh         1 AAO      -0.736000
     19 O3B          6.4440    -1.6310    -2.9290 oh         1 AAO      -0.733000
     20 O4B          8.4500    -1.1210    -0.7900 os         1 AAO      -0.496000
     21 O5B          6.9810     2.2780    -1.3630 os         1 AAO      -0.452000
     22 O6B          8.8520     2.9200     0.7520 oh         1 AAO      -0.720000
     23 C1C         -3.7660     1.8740     2.5940 c6         1 AAO       0.366300
     24 C2C         -3.4610     3.3110     2.0520 c6         1 AAO       0.107300
     25 C3C         -2.4310     3.2340     0.8870 c6         1 AAO       0.145300
     26 C4C         -1.1490     2.4330     1.3230 c6         1 AAO       0.166500
     27 C5C         -1.5930     1.0420     1.8910 c6         1 AAO       0.159300
     28 C6C         -0.4160     0.2260     2.4870 c3         1 AAO      -0.096100
     29 O2C         -4.6490     4.0240     1.6170 oh         1 AAO      -0.726000
     30 O3C         -2.1350     4.5770     0.4570 oh         1 AAO      -0.655000
     31 O5C         -2.5500     1.2000     2.9640 os         1 AAO      -0.461000
     32 N4C         -0.1640     2.2640     0.2020 n7         1 AAO      -0.900400
     33 C1H          0.8480     3.3510     0.0980 c6         1 AAO       0.176700
     34 C2H          1.3690     3.4360    -1.3670 c6         1 AAO       0.147300
     35 C3H          2.5100     2.4130    -1.6070 c6         1 AAO       0.122300
     36 C4H          3.7100     2.7340    -0.6570 c6         1 AAO       0.221500
     37 C5H          3.2400     2.8180     0.8000 c2         1 AAO      -0.114400
     38 C6H          1.9530     3.0910     1.1120 c2         1 AAO      -0.238200
     39 C7H          4.3350     2.6200     1.8450 c3         1 AAO       0.197800
     40 O2H          0.2600     3.1260    -2.2170 oh         1 AAO      -0.664000
     41 O3H          2.8640     2.3940    -3.0060 oh         1 AAO      -0.738000
     42 O4H          4.7650     1.7510    -0.7940 os         1 AAO      -0.495000
     43 O7H          4.1240     3.4750     2.9800 oh         1 AAO      -0.668000
     44 C1G         -8.5630    -0.0090     1.0380 c6         1 AAO       0.364300
     45 C2G         -8.1020     1.3630     0.4350 c6         1 AAO       0.116300
     46 C3G         -6.5510     1.3980     0.3480 c6         1 AAO       0.135300
     47 C4G         -5.9190     1.0670     1.7300 c6         1 AAO       0.164300
     48 C5G         -6.4660    -0.2930     2.2570 c6         1 AAO       0.148300
     49 C6G         -5.9290    -0.6480     3.6820 c3         1 AAO       0.163600
     50 O1G         -8.2790    -1.1120     0.1490 os         1 AAO      -0.495000
     51 O2G         -8.6720     1.6270    -0.8720 oh         1 AAO      -0.726000
     52 O3G         -6.1210     2.6820    -0.1480 oh         1 AAO      -0.733000
     53 O4G         -4.4730     1.0640     1.6310 os         1 AAO      -0.501000
     54 O5G         -7.9200    -0.2590     2.3060 os         1 AAO      -0.449000
     55 C1T        -10.9380    -3.7730    -1.9470 c6         1 AAO       0.358300
     56 C2T        -11.4530    -2.3170    -1.6690 c6         1 AAO       0.119300
     57 C3T        -10.2560    -1.3720    -1.3590 c6         1 AAO       0.165300
     58 C4T         -9.4090    -1.9570    -0.1830 c6         1 AAO       0.160300
     59 C5T         -8.9380    -3.3880    -0.5720 c6         1 AAO       0.151300
     60 C6T         -8.1200    -4.0670     0.5750 c3         1 AAO       0.162600
     61 O2T        -12.2200    -1.8010    -2.7820 oh         1 AAO      -0.706000
     62 O3T        -10.7460    -0.0380    -1.1020 oh         1 AAO      -0.738000
     63 O5T        -10.0930    -4.2270    -0.8750 os         1 AAO      -0.467000
     64 O6T         -7.7140    -5.4160     0.2640 oh         1 AAO      -0.712000
     65 H1A          8.9830    -1.8730    -2.6660 h2         1 AAO       0.083700
     66 H2A          9.2290    -4.1980    -2.0310 h1         1 AAO       0.086700
     67 H3A          8.5750    -3.3050     0.8240 h1         1 AAO       0.057700
     68 H4A         11.1700    -4.3950    -0.3930 h1         1 AAO       0.049700
     69 H5A         10.4770    -1.6060     0.7110 h1         1 AAO       0.073700
     70 H6A1        12.8400    -2.2100     1.1550 h1         1 AAO       0.037700
     71 H6A2        13.0590    -2.6960    -0.5300 h1         1 AAO       0.037700
     72 H11          6.9400    -2.9230    -2.0050 ho         1 AAO       0.541000
     73 H10          7.8690    -5.4430    -0.0730 ho         1 AAO       0.464000
     74 H9          10.4230    -4.9160     1.8560 ho         1 AAO       0.526000
     75 H6A         13.8830    -0.5840    -0.1750 ho         1 AAO       0.504000
     76 H1B          5.3380     2.8110    -2.5020 h2         1 AAO       0.088700
     77 H2B          6.4150     0.9760    -3.6740 h1         1 AAO       0.076700
     78 H3B          5.7600    -0.7000    -1.2010 h1         1 AAO       0.061700
     79 H4B          8.4440     0.2450    -2.3590 h1         1 AAO       0.060700
     80 H5B          6.9820     0.9420     0.2470 h1         1 AAO       0.069700
     81 H6B1         9.4430     0.9260     0.5350 h1         1 AAO       0.044700
     82 H6B2         9.6450     1.9230    -0.9100 h1         1 AAO       0.044700
     83 H13          3.8400     1.0720    -3.1990 ho         1 AAO       0.545000
     84 H12          5.6580    -1.4970    -3.5220 ho         1 AAO       0.530000
     85 H6B          9.7640     3.2090     0.9890 ho         1 AAO       0.507000
     86 H1C         -4.3780     1.9730     3.5040 h2         1 AAO       0.079700
     87 H2C         -2.9870     3.8610     2.8790 h1         1 AAO       0.091700
     88 H3C         -2.9000     2.6820     0.0580 h1         1 AAO       0.050700
     89 H4C         -0.6690     2.9750     2.1510 h1         1 AAO       0.060700
     90 H5C         -2.0520     0.4460     1.0880 h1         1 AAO       0.058700
     91 H6C1        -0.7760    -0.7030     2.9440 hc         1 AAO       0.049367
     92 H6C2         0.3130    -0.0530     1.7170 hc         1 AAO       0.049367
     93 H6C3         0.1140     0.7970     3.2580 hc         1 AAO       0.049367
     94 H6          -5.1260     3.4350     0.9540 ho         1 AAO       0.538000
     95 H7          -2.9840     5.0630     0.5650 ho         1 AAO       0.459000
     96 H8           0.3570     1.3920     0.3560 hn         1 AAO       0.426000
     97 H1H          0.3810     4.3230     0.3270 h1         1 AAO       0.098700
     98 H2H          1.7490     4.4520    -1.5580 h1         1 AAO       0.078700
     99 H3H          2.1300     1.4190    -1.3240 h1         1 AAO       0.046700
    100 H4H          4.1150     3.7220    -0.9220 h1         1 AAO       0.066700
    101 H6H          1.6540     3.1700     2.1580 ha         1 AAO       0.201000
    102 H7H1         4.3420     1.5670     2.1570 h1         1 AAO       0.046700
    103 H7H2         5.3180     2.8350     1.4030 h1         1 AAO       0.046700
    104 H15         -0.3490     2.7090    -1.5480 ho         1 AAO       0.477000
    105 H14          2.0270     2.6630    -3.4660 ho         1 AAO       0.532000
    106 H7H          4.8670     3.3090     3.6010 ho         1 AAO       0.452000
    107 H1G         -9.6480     0.0540     1.2140 h2         1 AAO       0.083700
    108 H2G         -8.4220     2.1430     1.1430 h1         1 AAO       0.090700
    109 H3G         -6.2370     0.6110    -0.3550 h1         1 AAO       0.061700
    110 H4G         -6.2340     1.8510     2.4340 h1         1 AAO       0.060700
    111 H5G         -6.1500    -1.0940     1.5730 h1         1 AAO       0.078700
    112 H6G1        -4.8340    -0.7160     3.6290 h1         1 AAO       0.036700
    113 H6G2        -6.1710     0.1860     4.3550 h1         1 AAO       0.036700
    114 H2          -9.4420     0.9890    -0.9790 ho         1 AAO       0.540000
    115 H1          -6.7590     2.8770    -0.8810 ho         1 AAO       0.528000
    116 H6G         -6.1260    -1.9780     5.1230 ho         1 AAO       0.506000
    117 H1T        -11.8050    -4.4470    -2.0280 h2         1 AAO       0.063700
    118 H2T        -12.0920    -2.3610    -0.7750 h1         1 AAO       0.053700
    119 H3T         -9.6070    -1.3530    -2.2480 h1         1 AAO       0.077700
    120 H4T        -10.0490    -2.0530     0.7080 h1         1 AAO       0.057700
    121 H5T         -8.2870    -3.3260    -1.4570 h1         1 AAO       0.076700
    122 H6T1        -7.2350    -3.4480     0.7790 h1         1 AAO       0.041200
    123 H6T2        -8.7370    -4.0580     1.4840 h1         1 AAO       0.041200
    124 H4         -11.8030    -2.1900    -3.5910 ho         1 AAO       0.511000
    125 H3         -11.5950     0.0090    -1.6130 ho         1 AAO       0.530000
    126 H6T         -7.2740    -5.7780     1.0690 ho         1 AAO       0.506000
    127 O6G         -6.4700    -1.8790     4.2050 oh         1 AAO      -0.714000
    128 O1T        -10.1750    -3.8320    -3.1490 oh         1 AAO      -0.722000
    129 H5          -9.8080    -4.7450    -3.1660 ho         1 AAO       0.520000
@<TRIPOS>BOND
     1     1     2 1   
     2     1    10 1   
     3     1    20 1   
     4     1    65 1   
     5     2     3 1   
     6     2     7 1   
     7     2    66 1   
     8     3     4 1   
     9     3     8 1   
    10     3    67 1   
    11     4     5 1   
    12     4     9 1   
    13     4    68 1   
    14     5     6 1   
    15     5    10 1   
    16     5    69 1   
    17     6    11 1   
    18     6    70 1   
    19     6    71 1   
    20     7    72 1   
    21     8    73 1   
    22     9    74 1   
    23    11    75 1   
    24    12    13 1   
    25    12    21 1   
    26    12    42 1   
    27    12    76 1   
    28    13    14 1   
    29    13    18 1   
    30    13    77 1   
    31    14    15 1   
    32    14    19 1   
    33    14    78 1   
    34    15    16 1   
    35    15    20 1   
    36    15    79 1   
    37    16    17 1   
    38    16    21 1   
    39    16    80 1   
    40    17    22 1   
    41    17    81 1   
    42    17    82 1   
    43    18    83 1   
    44    19    84 1   
    45    22    85 1   
    46    23    24 1   
    47    23    31 1   
    48    23    53 1   
    49    23    86 1   
    50    24    25 1   
    51    24    29 1   
    52    24    87 1   
    53    25    26 1   
    54    25    30 1   
    55    25    88 1   
    56    26    27 1   
    57    26    32 1   
    58    26    89 1   
    59    27    28 1   
    60    27    31 1   
    61    27    90 1   
    62    28    91 1   
    63    28    92 1   
    64    28    93 1   
    65    29    94 1   
    66    30    95 1   
    67    32    33 1   
    68    32    96 1   
    69    33    34 1   
    70    33    38 1   
    71    33    97 1   
    72    34    35 1   
    73    34    40 1   
    74    34    98 1   
    75    35    36 1   
    76    35    41 1   
    77    35    99 1   
    78    36    37 1   
    79    36    42 1   
    80    36   100 1   
    81    37    38 2   
    82    37    39 1   
    83    38   101 1   
    84    39    43 1   
    85    39   102 1   
    86    39   103 1   
    87    40   104 1   
    88    41   105 1   
    89    43   106 1   
    90    44    45 1   
    91    44    50 1   
    92    44    54 1   
    93    44   107 1   
    94    45    46 1   
    95    45    51 1   
    96    45   108 1   
    97    46    47 1   
    98    46    52 1   
    99    46   109 1   
   100    47    48 1   
   101    47    53 1   
   102    47   110 1   
   103    48    49 1   
   104    48    54 1   
   105    48   111 1   
   106    49   112 1   
   107    49   113 1   
   108    49   127 1   
   109    50    58 1   
   110    51   114 1   
   111    52   115 1   
   112    55    56 1   
   113    55    63 1   
   114    55   117 1   
   115    55   128 1   
   116    56    57 1   
   117    56    61 1   
   118    56   118 1   
   119    57    58 1   
   120    57    62 1   
   121    57   119 1   
   122    58    59 1   
   123    58   120 1   
   124    59    60 1   
   125    59    63 1   
   126    59   121 1   
   127    60    64 1   
   128    60   122 1   
   129    60   123 1   
   130    61   124 1   
   131    62   125 1   
   132    64   126 1   
   133   116   127 1   
   134   128   129 1   
@<TRIPOS>SUBSTRUCTURE
     1 AAO         1 TEMP              0 ****  ****    0 ROOT
