@<TRIPOS>MOLECULE
AAP
   39    40     1     0     0
SMALL
No Charge or Current Charge


@<TRIPOS>ATOM
      1 C           -0.1890    -2.6900    -1.5110 c          1 AAP       0.597100
      2 CA          -0.5640    -1.4640    -0.5960 c3         1 AAP       0.193800
      3 O           -0.1130    -2.6440    -2.7300 o          1 AAP      -0.599100
      4 N            0.0490    -3.8580    -0.8680 nt         1 AAP      -0.589000
      5 C1          -0.3250    -0.1100    -1.2950 ca         1 AAP      -0.074300
      6 C2           0.9820     0.2970    -1.6740 ca         1 AAP       0.148000
      7 C3           1.1950     1.5390    -2.2960 ca         1 AAP      -0.103000
      8 C4           0.1180     2.3970    -2.5570 ca         1 AAP      -0.083000
      9 C5          -1.1790     2.0070    -2.1980 ca         1 AAP      -0.103000
     10 C6          -1.4060     0.7680    -1.5760 ca         1 AAP       0.148000
     11 Cl2          2.4020    -0.7170    -1.4010 cl         1 AAP      -0.190500
     12 Cl6         -3.0790     0.3680    -1.1770 cl         1 AAP      -0.190500
     13 N1           0.0950    -1.4750     0.7540 nu         1 AAP      -0.977200
     14 C8          -0.1260    -0.5380     1.7570 ca         1 AAP       0.391000
     15 C9           0.9530     0.0310     2.4660 ca         1 AAP      -0.274600
     16 C10          0.6790     1.0180     3.4410 ca         1 AAP      -0.022000
     17 C11         -0.6410     1.4160     3.7050 ca         1 AAP      -0.183000
     18 C12         -1.7100     0.8340     3.0100 ca         1 AAP       0.006700
     19 C13         -1.4420    -0.1430     2.0400 ca         1 AAP      -0.214000
     20 C7           2.3780    -0.3860     2.2010 c          1 AAP       0.599700
     21 O1           2.6520    -1.5160     1.8140 o          1 AAP      -0.569100
     22 CM           3.5010     0.6270     2.4260 c3         1 AAP      -0.192100
     23 CM5         -3.1420     1.2580     3.2920 c3         1 AAP      -0.057800
     24 HA          -1.6370    -1.6110    -0.4350 h1         1 AAP       0.092700
     25 HN1          0.2920    -4.6810    -1.3990 hn         1 AAP       0.320000
     26 HN2         -0.0230    -3.8910     0.1390 hn         1 AAP       0.320000
     27 H3           2.2020     1.8350    -2.5780 ha         1 AAP       0.135500
     28 H4           0.2880     3.3580    -3.0390 ha         1 AAP       0.125000
     29 H5          -2.0170     2.6680    -2.4050 ha         1 AAP       0.135500
     30 HN           1.0740    -1.7910     0.7610 hn         1 AAP       0.531000
     31 H1           1.4820     1.4810     4.0110 ha         1 AAP       0.110000
     32 H2          -0.8300     2.1770     4.4580 ha         1 AAP       0.117000
     33 H6          -2.2680    -0.5990     1.5050 ha         1 AAP       0.121000
     34 HM'1         4.4450     0.3070     1.9700 hc         1 AAP       0.061700
     35 HM'2         3.1830     1.6160     2.0800 hc         1 AAP       0.061700
     36 HM'3         3.6360     0.7630     3.5040 hc         1 AAP       0.061700
     37 HM51        -3.4870     1.9830     2.5460 hc         1 AAP       0.048367
     38 HM52        -3.8230     0.3990     3.2650 hc         1 AAP       0.048367
     39 HM53        -3.2380     1.7230     4.2810 hc         1 AAP       0.048367
@<TRIPOS>BOND
     1     1     2 1   
     2     1     3 2   
     3     1     4 1   
     4     2     5 1   
     5     2    13 1   
     6     2    24 1   
     7     4    25 1   
     8     4    26 1   
     9     5     6 ar  
    10     5    10 ar  
    11     6     7 ar  
    12     6    11 1   
    13     7     8 ar  
    14     7    27 1   
    15     8     9 ar  
    16     8    28 1   
    17     9    10 ar  
    18     9    29 1   
    19    10    12 1   
    20    13    14 1   
    21    13    30 1   
    22    14    15 ar  
    23    14    19 ar  
    24    15    16 ar  
    25    15    20 1   
    26    16    17 ar  
    27    16    31 1   
    28    17    18 ar  
    29    17    32 1   
    30    18    19 ar  
    31    18    23 1   
    32    19    33 1   
    33    20    21 2   
    34    20    22 1   
    35    22    34 1   
    36    22    35 1   
    37    22    36 1   
    38    23    37 1   
    39    23    38 1   
    40    23    39 1   
@<TRIPOS>SUBSTRUCTURE
     1 AAP         1 TEMP              0 ****  ****    0 ROOT
