@<TRIPOS>MOLECULE
AAP
   39    40     1     0     0
SMALL
bcc


@<TRIPOS>ATOM
      1 C           -0.8270    -2.1740    -0.9160 c          1 AAP       0.664100
      2 CA          -0.5040    -0.7000    -0.6320 c3         1 AAP       0.193800
      3 O           -1.4160    -2.4700    -1.9430 o          1 AAP      -0.599100
      4 N           -0.5140    -3.0300     0.0580 nt         1 AAP      -0.656000
      5 C1           0.0400    -0.0110    -1.8610 ca         1 AAP      -0.074300
      6 C2           1.1730    -0.4840    -2.5260 ca         1 AAP       0.056400
      7 C3           1.7050     0.1420    -3.6400 ca         1 AAP      -0.121000
      8 C4           1.1010     1.2930    -4.1180 ca         1 AAP      -0.101000
      9 C5          -0.0120     1.8120    -3.4810 ca         1 AAP      -0.121000
     10 C6          -0.5220     1.1620    -2.3660 ca         1 AAP       0.056400
     11 CL2          1.9790    -1.9010    -1.9400 cl         1 AAP      -0.098900
     12 CL6         -1.9010     1.8780    -1.5960 cl         1 AAP      -0.098900
     13 N1           0.3470    -0.4530     0.5020 nu         1 AAP      -0.783600
     14 C8          -0.1030    -0.0680     1.7320 ca         1 AAP       0.252600
     15 C9           0.7640     0.5760     2.6580 ca         1 AAP      -0.274600
     16 C10          0.2470     0.9300     3.9120 ca         1 AAP      -0.040000
     17 C11         -1.0560     0.6770     4.2720 ca         1 AAP      -0.201000
     18 C12         -1.9110     0.0360     3.3690 ca         1 AAP       0.006700
     19 C13         -1.4260    -0.3310     2.1260 ca         1 AAP      -0.232000
     20 C7           2.1630     0.8910     2.3320 c          1 AAP       0.599700
     21 O1           2.6690     0.5780     1.2600 o          1 AAP      -0.569100
     22 CM           2.9970     1.6260     3.3500 c3         1 AAP      -0.192100
     23 CM5         -3.3340    -0.2460     3.7400 c3         1 AAP      -0.057800
     24 HA          -1.4870    -0.2660    -0.4310 h1         1 AAP       0.092700
     25 HN1         -0.6970    -4.0130    -0.0560 hn         1 AAP       0.320000
     26 HN2          0.0810    -2.7510     0.8200 hn         1 AAP       0.320000
     27 H3           2.5810    -0.2630    -4.1260 ha         1 AAP       0.153500
     28 H4           1.5050     1.7940    -4.9870 ha         1 AAP       0.143000
     29 H5          -0.4810     2.7160    -3.8430 ha         1 AAP       0.153500
     30 HN           1.3190    -0.2230     0.3310 hn         1 AAP       0.475800
     31 H1           0.8890     1.4230     4.6290 ha         1 AAP       0.128000
     32 H2          -1.4140     0.9650     5.2520 ha         1 AAP       0.135000
     33 H6          -2.0900    -0.8660     1.4600 ha         1 AAP       0.139000
     34 HM'1         3.9920     1.8040     2.9490 hc         1 AAP       0.061700
     35 HM'2         2.5490     2.5850     3.6120 hc         1 AAP       0.061700
     36 HM'3         3.0910     1.0510     4.2720 hc         1 AAP       0.061700
     37 HM51        -3.9430     0.6540     3.6340 hc         1 AAP       0.048367
     38 HM52        -3.7720    -1.0160     3.1060 hc         1 AAP       0.048367
     39 HM53        -3.4170    -0.5680     4.7780 hc         1 AAP       0.048367
@<TRIPOS>BOND
     1     1     2 1   
     2     1     3 2   
     3     1     4 1   
     4     2     5 1   
     5     2    13 1   
     6     2    24 1   
     7     4    25 1   
     8     4    26 1   
     9     5     6 ar  
    10     5    10 ar  
    11     6     7 ar  
    12     6    11 1   
    13     7     8 ar  
    14     7    27 1   
    15     8     9 ar  
    16     8    28 1   
    17     9    10 ar  
    18     9    29 1   
    19    10    12 1   
    20    13    14 1   
    21    13    30 1   
    22    14    15 ar  
    23    14    19 ar  
    24    15    16 ar  
    25    15    20 1   
    26    16    17 ar  
    27    16    31 1   
    28    17    18 ar  
    29    17    32 1   
    30    18    19 ar  
    31    18    23 1   
    32    19    33 1   
    33    20    21 2   
    34    20    22 1   
    35    22    34 1   
    36    22    35 1   
    37    22    36 1   
    38    23    37 1   
    39    23    38 1   
    40    23    39 1   
@<TRIPOS>SUBSTRUCTURE
     1 AAP         1 TEMP              0 ****  ****    0 ROOT
