@<TRIPOS>MOLECULE
AAQ
   48    51     1     0     0
SMALL
bcc


@<TRIPOS>ATOM
      1 N1          -3.6260     2.4590    -0.0920 na         1 AAQ      -0.308300
      2 C3          -3.2280     1.1380    -0.0820 ca         1 AAQ      -0.118200
      3 C2          -3.8730    -0.0280    -0.3840 ca         1 AAQ      -0.045000
      4 C4          -3.1280    -1.2100    -0.2600 ca         1 AAQ      -0.229600
      5 C5          -1.7740    -1.2010     0.1590 ca         1 AAQ       0.220400
      6 C6          -1.1330     0.0120     0.4730 ca         1 AAQ      -0.062300
      7 C7           0.3020     0.0590     0.9010 c3         1 AAQ      -0.011100
      8 C8           1.2530     0.1170    -0.2900 c3         1 AAQ       0.164800
      9 N2           2.6330     0.1660     0.1540 n7         1 AAQ      -0.811200
     10 C9           3.5770     0.1810    -0.9430 c3         1 AAQ       0.207100
     11 C10          5.0070     0.1660    -0.4670 ca         1 AAQ      -0.086300
     12 C11          5.3860    -0.5720     0.6530 ca         1 AAQ      -0.118000
     13 C12          6.7120    -0.6070     1.0630 ca         1 AAQ      -0.133500
     14 C13          7.6820     0.0950     0.3580 ca         1 AAQ      -0.130000
     15 C14          7.3150     0.8350    -0.7570 ca         1 AAQ      -0.133500
     16 C15          5.9860     0.8710    -1.1620 ca         1 AAQ      -0.118000
     17 C16         -1.8750     1.1780     0.3400 ca         1 AAQ       0.161400
     18 N3          -1.4890     2.4690     0.5700 nc         1 AAQ      -0.672100
     19 C17         -2.5540     3.2000     0.3020 cd         1 AAQ       0.689700
     20 N4          -2.6080     4.5310     0.3970 nu         1 AAQ      -0.860200
     21 C1          -3.7800     5.3140     0.0940 c3         1 AAQ       0.220100
     22 N5          -1.0480    -2.3610     0.2770 nc         1 AAQ      -0.700100
     23 C18         -1.6210    -3.4790    -0.0150 cd         1 AAQ       0.705800
     24 N6          -0.9320    -4.6420     0.0280 nv         1 AAQ      -0.923800
     25 N7          -2.9230    -3.5660    -0.4280 ns         1 AAQ      -0.520400
     26 C19         -3.7550    -2.4780    -0.5730 c          1 AAQ       0.736100
     27 O1          -4.9110    -2.6300    -0.9410 o          1 AAQ      -0.629500
     28 HN1         -4.5360     2.8030    -0.3540 hn         1 AAQ       0.306700
     29 H2          -4.9050    -0.0550    -0.7070 ha         1 AAQ       0.154000
     30 H7           0.4590     0.9400     1.5290 hc         1 AAQ       0.061700
     31 H7A          0.5460    -0.8160     1.5040 hc         1 AAQ       0.061700
     32 H8           1.1220    -0.7810    -0.9010 h1         1 AAQ       0.034200
     33 H8A          0.9840     0.9710    -0.9310 h1         1 AAQ       0.034200
     34 HN2          2.7690     0.9980     0.7170 hn         1 AAQ       0.353800
     35 H9           3.3980    -0.7130    -1.5510 h1         1 AAQ       0.034700
     36 H9A          3.4370     1.0340    -1.6250 h1         1 AAQ       0.034700
     37 H11          4.6340    -1.1190     1.2080 ha         1 AAQ       0.136500
     38 H12          6.9890    -1.1830     1.9370 ha         1 AAQ       0.127500
     39 H13          8.7160     0.0690     0.6800 ha         1 AAQ       0.127000
     40 H14          8.0600     1.3930    -1.3100 ha         1 AAQ       0.127500
     41 H15          5.7060     1.4570    -2.0300 ha         1 AAQ       0.136500
     42 HN4         -1.7700     4.9960     0.7000 hn         1 AAQ       0.468800
     43 H1          -3.5420     6.3610     0.2570 h1         1 AAQ       0.040033
     44 H1A         -4.0930     5.2000    -0.9460 h1         1 AAQ       0.040033
     45 H1B         -4.6220     5.0580     0.7410 h1         1 AAQ       0.040033
     46 HN6         -0.0540    -4.6140     0.5210 hn         1 AAQ       0.431800
     47 HN6A        -1.4330    -5.5120     0.1110 hn         1 AAQ       0.431800
     48 HN7         -3.3150    -4.4710    -0.6540 hn         1 AAQ       0.323500
@<TRIPOS>BOND
     1     1     2 1   
     2     1    19 1   
     3     1    28 1   
     4     2     3 ar  
     5     2    17 ar  
     6     3     4 ar  
     7     3    29 1   
     8     4     5 ar  
     9     4    26 1   
    10     5     6 ar  
    11     5    22 1   
    12     6     7 1   
    13     6    17 ar  
    14     7     8 1   
    15     7    30 1   
    16     7    31 1   
    17     8     9 1   
    18     8    32 1   
    19     8    33 1   
    20     9    10 1   
    21     9    34 1   
    22    10    11 1   
    23    10    35 1   
    24    10    36 1   
    25    11    12 ar  
    26    11    16 ar  
    27    12    13 ar  
    28    12    37 1   
    29    13    14 ar  
    30    13    38 1   
    31    14    15 ar  
    32    14    39 1   
    33    15    16 ar  
    34    15    40 1   
    35    16    41 1   
    36    17    18 1   
    37    18    19 2   
    38    19    20 1   
    39    20    21 1   
    40    20    42 1   
    41    21    43 1   
    42    21    44 1   
    43    21    45 1   
    44    22    23 2   
    45    23    24 1   
    46    23    25 1   
    47    24    46 1   
    48    24    47 1   
    49    25    26 1   
    50    25    48 1   
    51    26    27 2   
@<TRIPOS>SUBSTRUCTURE
     1 AAQ         1 TEMP              0 ****  ****    0 ROOT
