@<TRIPOS>MOLECULE
AAQ
   48    51     1     0     0
SMALL
No Charge or Current Charge


@<TRIPOS>ATOM
      1 N1          -3.6140     2.4430    -0.2290 na         1 AAQ      -0.358600
      2 C3          -3.1840     1.1480    -0.1260 ca         1 AAQ      -0.118200
      3 C2          -3.8990    -0.0270    -0.3550 ca         1 AAQ      -0.027000
      4 C4          -3.2190    -1.2520    -0.1880 ca         1 AAQ      -0.229600
      5 C5          -1.8510    -1.2880     0.2020 ca         1 AAQ       0.220400
      6 C6          -1.1660    -0.0570     0.4310 ca         1 AAQ      -0.062300
      7 C7           0.3110    -0.0180     0.8460 c3         1 AAQ      -0.011100
      8 C8           1.2540    -0.0530    -0.3740 c3         1 AAQ       0.164800
      9 N2           2.6680     0.0350     0.0470 n7         1 AAQ      -0.866400
     10 C9           3.6490    -0.0150    -1.0500 c3         1 AAQ       0.207100
     11 C10          5.0660     0.1340    -0.5090 ca         1 AAQ      -0.086300
     12 C11          5.7640    -0.9910    -0.0270 ca         1 AAQ      -0.100000
     13 C12          7.0740    -0.8550     0.4680 ca         1 AAQ      -0.115500
     14 C13          7.6920     0.4060     0.4840 ca         1 AAQ      -0.112000
     15 C14          7.0010     1.5320     0.0050 ca         1 AAQ      -0.115500
     16 C15          5.6920     1.3970    -0.4900 ca         1 AAQ      -0.100000
     17 C16         -1.8700     1.1510     0.2500 ca         1 AAQ       0.161400
     18 N3          -1.4000     2.4520     0.4020 nc         1 AAQ      -0.672100
     19 C17         -2.4810     3.1630     0.1040 cd         1 AAQ       0.689700
     20 N4          -2.4200     4.5040     0.1390 nu         1 AAQ      -0.915400
     21 C1          -3.5310     5.4490    -0.0450 c3         1 AAQ       0.220100
     22 N5          -1.1400    -2.4970     0.3700 nc         1 AAQ      -0.700100
     23 C18         -1.8750    -3.5530     0.1320 cd         1 AAQ       0.705800
     24 N6          -1.2450    -4.7050     0.2870 nv         1 AAQ      -1.034200
     25 N7          -3.1600    -3.6220    -0.2340 ns         1 AAQ      -0.453400
     26 C19         -3.9270    -2.5350    -0.4260 c          1 AAQ       0.593600
     27 O1          -5.0970    -2.6220    -0.7680 o          1 AAQ      -0.554000
     28 HN1         -4.5170     2.8110    -0.4870 hn         1 AAQ       0.357000
     29 H2          -4.9440     0.0080    -0.6560 ha         1 AAQ       0.136000
     30 H7           0.5180     0.8860     1.4300 hc         1 AAQ       0.061700
     31 H7A          0.5530    -0.8540     1.5130 hc         1 AAQ       0.061700
     32 H8           1.0790    -0.9840    -0.9300 h1         1 AAQ       0.034200
     33 H8A          1.0020     0.7840    -1.0400 h1         1 AAQ       0.034200
     34 HN2          2.8010     0.9260     0.5400 hn         1 AAQ       0.409000
     35 H9           3.5700    -0.9680    -1.5920 h1         1 AAQ       0.034700
     36 H9A          3.4560     0.7890    -1.7750 h1         1 AAQ       0.034700
     37 H11          5.2890    -1.9690    -0.0350 ha         1 AAQ       0.118500
     38 H12          7.6070    -1.7280     0.8390 ha         1 AAQ       0.109500
     39 H13          8.7050     0.5110     0.8660 ha         1 AAQ       0.109000
     40 H14          7.4790     2.5090     0.0180 ha         1 AAQ       0.109500
     41 H15          5.1640     2.2740    -0.8580 ha         1 AAQ       0.118500
     42 HN4         -1.5170     4.8490     0.4570 hn         1 AAQ       0.524000
     43 H1          -3.1820     6.4810     0.0890 h1         1 AAQ       0.040033
     44 H1A         -3.9530     5.3540    -1.0540 h1         1 AAQ       0.040033
     45 H1B         -4.3270     5.2550     0.6870 h1         1 AAQ       0.040033
     46 HN6         -0.3440    -4.6110     0.7370 hn         1 AAQ       0.487000
     47 HN6A        -1.7950    -5.5020     0.5810 hn         1 AAQ       0.487000
     48 HN7         -3.5920    -4.5140    -0.4040 hn         1 AAQ       0.323500
@<TRIPOS>BOND
     1     1     2 1   
     2     1    19 1   
     3     1    28 1   
     4     2     3 ar  
     5     2    17 ar  
     6     3     4 ar  
     7     3    29 1   
     8     4     5 ar  
     9     4    26 1   
    10     5     6 ar  
    11     5    22 1   
    12     6     7 1   
    13     6    17 ar  
    14     7     8 1   
    15     7    30 1   
    16     7    31 1   
    17     8     9 1   
    18     8    32 1   
    19     8    33 1   
    20     9    10 1   
    21     9    34 1   
    22    10    11 1   
    23    10    35 1   
    24    10    36 1   
    25    11    12 ar  
    26    11    16 ar  
    27    12    13 ar  
    28    12    37 1   
    29    13    14 ar  
    30    13    38 1   
    31    14    15 ar  
    32    14    39 1   
    33    15    16 ar  
    34    15    40 1   
    35    16    41 1   
    36    17    18 1   
    37    18    19 2   
    38    19    20 1   
    39    20    21 1   
    40    20    42 1   
    41    21    43 1   
    42    21    44 1   
    43    21    45 1   
    44    22    23 2   
    45    23    24 1   
    46    23    25 1   
    47    24    46 1   
    48    24    47 1   
    49    25    26 1   
    50    25    48 1   
    51    26    27 2   
@<TRIPOS>SUBSTRUCTURE
     1 AAQ         1 TEMP              0 ****  ****    0 ROOT
