@<TRIPOS>MOLECULE
AAR
   28    27     1     0     0
SMALL
bcc


@<TRIPOS>ATOM
      1 N            2.5000     1.8080    -0.1300 n8         1 AAR      -0.863800
      2 CA           2.2830     0.4570     0.3470 c3         1 AAR       0.086500
      3 CB           1.0350    -0.2520    -0.2040 c3         1 AAR      -0.118400
      4 CG          -0.2590     0.4200     0.2320 c3         1 AAR      -0.095400
      5 CD          -1.4730    -0.3540    -0.2530 c3         1 AAR       0.031300
      6 NE          -2.6920     0.3110     0.1750 nu         1 AAR      -0.409100
      7 CZ          -3.9150    -0.1560    -0.0360 cz         1 AAR       0.531300
      8 NH1         -4.0930    -1.3080    -0.6670 nv         1 AAR      -0.510200
      9 NH2         -4.9670     0.5380     0.3810 nv         1 AAR      -0.510200
     10 C            3.5030    -0.3830    -0.0090 c          1 AAR       0.679100
     11 O            4.0460    -0.2850    -1.1000 o          1 AAR      -0.582100
     12 NT           3.8930    -1.2530     0.9320 nt         1 AAR      -0.671000
     13 H            2.5400     1.8120    -1.1420 hn         1 AAR       0.352800
     14 H2           1.7200     2.3970     0.1290 hn         1 AAR       0.352800
     15 HA           2.1880     0.5030     1.4370 h1         1 AAR       0.064700
     16 HB2          1.0930    -0.2820    -1.2970 hc         1 AAR       0.062700
     17 HB3          1.0310    -1.2920     0.1370 hc         1 AAR       0.062700
     18 HG2         -0.2890     0.4850     1.3240 hc         1 AAR       0.058700
     19 HG3         -0.3090     1.4420    -0.1540 hc         1 AAR       0.058700
     20 HD2         -1.4530    -0.4330    -1.3440 h1         1 AAR       0.068200
     21 HD3         -1.4420    -1.3680     0.1550 h1         1 AAR       0.068200
     22 HE          -2.6060     1.1980     0.6460 hn         1 AAR       0.322700
     23 HH11        -3.3200    -1.8770    -0.9670 hn         1 AAR       0.329950
     24 HH12        -5.0140    -1.6910    -0.7960 hn         1 AAR       0.329950
     25 HH21        -5.9030     0.1960     0.2520 hn         1 AAR       0.329950
     26 HH22        -4.8560     1.4080     0.8730 hn         1 AAR       0.329950
     27 HNT1         3.4540    -1.2920     1.8350 hn         1 AAR       0.320000
     28 HNT2         4.6600    -1.8840     0.7630 hn         1 AAR       0.320000
@<TRIPOS>BOND
     1     1     2 1   
     2     1    13 1   
     3     1    14 1   
     4     2     3 1   
     5     2    10 1   
     6     2    15 1   
     7     3     4 1   
     8     3    16 1   
     9     3    17 1   
    10     4     5 1   
    11     4    18 1   
    12     4    19 1   
    13     5     6 1   
    14     5    20 1   
    15     5    21 1   
    16     6     7 2   
    17     6    22 1   
    18     7     8 1   
    19     7     9 1   
    20     8    23 1   
    21     8    24 1   
    22     9    25 1   
    23     9    26 1   
    24    10    11 2   
    25    10    12 1   
    26    12    27 1   
    27    12    28 1   
@<TRIPOS>SUBSTRUCTURE
     1 AAR         1 TEMP              0 ****  ****    0 ROOT
