@<TRIPOS>MOLECULE
AAR
   28    27     1     0     0
SMALL
No Charge or Current Charge


@<TRIPOS>ATOM
      1 N            2.4070     1.9320    -0.2660 n8         1 AAR      -0.863800
      2 CA           2.3720     0.5460     0.3110 c3         1 AAR       0.086500
      3 CB           1.1110    -0.2110    -0.1920 c3         1 AAR      -0.118400
      4 CG          -0.2380     0.4260     0.2310 c3         1 AAR      -0.095400
      5 CD          -1.4550    -0.4050    -0.2250 c3         1 AAR       0.031300
      6 NE          -2.7080     0.2360     0.2040 nu         1 AAR      -0.409100
      7 CZ          -3.9550    -0.1770    -0.0080 cz         1 AAR       0.531300
      8 NH1         -4.2080    -1.2900    -0.6760 nv         1 AAR      -0.510200
      9 NH2         -4.9710     0.5290     0.4520 nv         1 AAR      -0.510200
     10 C            3.6820    -0.3120     0.1170 c          1 AAR       0.679100
     11 O            4.5630    -0.0420    -0.6870 o          1 AAR      -0.582100
     12 NT           3.8120    -1.4070     0.9030 nt         1 AAR      -0.671000
     13 H            2.5790     1.8730    -1.2760 hn         1 AAR       0.352800
     14 H2           1.4790     2.3580    -0.1880 hn         1 AAR       0.352800
     15 HA           2.2640     0.6610     1.3980 h1         1 AAR       0.064700
     16 HB2          1.1500    -0.2950    -1.2860 hc         1 AAR       0.062700
     17 HB3          1.1370    -1.2380     0.1940 hc         1 AAR       0.062700
     18 HG2         -0.2600     0.5290     1.3230 hc         1 AAR       0.058700
     19 HG3         -0.3210     1.4350    -0.1920 hc         1 AAR       0.058700
     20 HD2         -1.4390    -0.4990    -1.3190 h1         1 AAR       0.068200
     21 HD3         -1.3870    -1.4130     0.2060 h1         1 AAR       0.068200
     22 HE          -2.6000     1.0990     0.7260 hn         1 AAR       0.322700
     23 HH11        -3.4680    -1.8670    -1.0490 hn         1 AAR       0.329950
     24 HH12        -5.1480    -1.6180    -0.8450 hn         1 AAR       0.329950
     25 HH21        -5.9310     0.2460     0.3100 hn         1 AAR       0.329950
     26 HH22        -4.8430     1.3880     0.9690 hn         1 AAR       0.329950
     27 HNT1         3.0940    -1.6380     1.5740 hn         1 AAR       0.320000
     28 HNT2         4.6360    -1.9820     0.8110 hn         1 AAR       0.320000
@<TRIPOS>BOND
     1     1     2 1   
     2     1    13 1   
     3     1    14 1   
     4     2     3 1   
     5     2    10 1   
     6     2    15 1   
     7     3     4 1   
     8     3    16 1   
     9     3    17 1   
    10     4     5 1   
    11     4    18 1   
    12     4    19 1   
    13     5     6 1   
    14     5    20 1   
    15     5    21 1   
    16     6     7 2   
    17     6    22 1   
    18     7     8 1   
    19     7     9 1   
    20     8    23 1   
    21     8    24 1   
    22     9    25 1   
    23     9    26 1   
    24    10    11 2   
    25    10    12 1   
    26    12    27 1   
    27    12    28 1   
@<TRIPOS>SUBSTRUCTURE
     1 AAR         1 TEMP              0 ****  ****    0 ROOT
