@<TRIPOS>MOLECULE
AAT
   58    60     1     0     0
SMALL
bcc


@<TRIPOS>ATOM
      1 N           -3.7750    -1.5300     5.3930 n8         1 AAT      -0.888800
      2 CA          -2.4100    -1.4680     4.8850 c3         1 AAT       0.190000
      3 CB          -2.3980    -0.8210     3.5330 c2         1 AAT      -0.184200
      4 CG          -1.5840     0.1650     3.1480 c2         1 AAT       0.005400
      5 SD          -1.5650     0.8950     1.5430 ss         1 AAT      -0.218700
      6 C5          -2.7620    -0.0710     0.5960 c3         1 AAT      -0.051300
      7 C4          -3.0240     0.6320    -0.7310 c5         1 AAT       0.157100
      8 O4          -1.8190     1.1370    -1.3050 os         1 AAT      -0.386600
      9 C3          -3.5970    -0.3190    -1.7740 c5         1 AAT       0.088100
     10 O3          -4.3110     0.4300    -2.7200 oh         1 AAT      -0.579800
     11 C2          -2.3100    -0.8870    -2.3830 c5         1 AAT       0.059100
     12 O2          -2.4410    -1.3720    -3.6850 oh         1 AAT      -0.570800
     13 C1          -1.4030     0.3470    -2.3820 c5         1 AAT       0.262800
     14 N9          -0.0000     0.0430    -2.2510 na         1 AAT      -0.263000
     15 C8           0.6300    -0.5610    -1.1950 cc         1 AAT       0.410700
     16 N7           1.9170    -0.6550    -1.3490 nd         1 AAT      -0.553100
     17 C7           2.1590    -0.0790    -2.5700 ca         1 AAT      -0.232200
     18 C6           3.3360     0.1420    -3.3090 ca         1 AAT       0.780200
     19 N6           4.5400    -0.2380    -2.8800 nv         1 AAT      -0.956500
     20 N1           3.2260     0.7610    -4.4900 nb         1 AAT      -0.830000
     21 C10          2.0240     1.1400    -4.9150 ca         1 AAT       0.709900
     22 N3           0.8550     0.9850    -4.3170 nb         1 AAT      -0.744000
     23 C9           0.9800     0.3680    -3.1450 ca         1 AAT       0.469800
     24 C11         -0.4940     0.7610     4.0020 c3         1 AAT      -0.030200
     25 C12          0.7830    -0.0800     3.9830 c3         1 AAT      -0.073400
     26 C13          1.9210     0.5700     4.7580 c3         1 AAT      -0.075400
     27 C14          3.1630    -0.3080     4.8350 c3         1 AAT      -0.078400
     28 C15          4.3000     0.3500     5.6020 c3         1 AAT       0.148800
     29 N16          5.4610    -0.5260     5.6710 n8         1 AAT      -0.883800
     30 HN1         -3.7850    -2.0410     6.2660 hn         1 AAT       0.340300
     31 HN2         -4.0910    -0.5940     5.6150 hn         1 AAT       0.340300
     32 HCA1        -2.0500    -2.4970     4.7830 h1         1 AAT       0.035700
     33 HCA2        -1.7090    -0.9700     5.5650 h1         1 AAT       0.035700
     34 HCB         -3.1310    -1.2280     2.8450 ha         1 AAT       0.129000
     35 H5'1        -2.3880    -1.0900     0.4670 h1         1 AAT       0.067700
     36 H5'2        -3.7080    -0.1340     1.1350 h1         1 AAT       0.067700
     37 H4'C        -3.6910     1.4790    -0.5560 h1         1 AAT       0.108700
     38 H3'C        -4.2150    -1.1020    -1.3150 h1         1 AAT       0.057700
     39 H3'O        -4.3380    -0.0750    -3.5410 ho         1 AAT       0.425000
     40 H2'C        -1.9000    -1.6520    -1.7120 h1         1 AAT       0.053700
     41 H2'O        -2.7550    -2.2810    -3.6480 ho         1 AAT       0.416000
     42 H1'C        -1.5030     0.8900    -3.3270 h2         1 AAT       0.127700
     43 HC8          0.0900    -0.9010    -0.3240 h5         1 AAT       0.069800
     44 HN61         5.3580    -0.0500    -3.4330 hn         1 AAT       0.452300
     45 HN62         4.6550    -0.7000    -1.9950 hn         1 AAT       0.452300
     46 HC2          2.0060     1.6400    -5.8770 h5         1 AAT       0.046100
     47 H111        -0.8460     0.8710     5.0300 hc         1 AAT       0.053700
     48 H112        -0.2630     1.7750     3.6580 hc         1 AAT       0.053700
     49 H121         1.0910    -0.2510     2.9460 hc         1 AAT       0.046200
     50 H122         0.5680    -1.0670     4.4050 hc         1 AAT       0.046200
     51 H131         1.5790     0.8060     5.7710 hc         1 AAT       0.037200
     52 H132         2.1760     1.5280     4.2920 hc         1 AAT       0.037200
     53 H141         3.5080    -0.5590     3.8270 hc         1 AAT       0.047200
     54 H142         2.9040    -1.2570     5.3180 hc         1 AAT       0.047200
     55 H151         3.9270     0.6620     6.5890 h1         1 AAT       0.026200
     56 H152         4.5920     1.2680     5.0840 h1         1 AAT       0.026200
     57 H161         6.2070    -0.0600     6.1710 hn         1 AAT       0.335300
     58 H162         5.2280    -1.3380     6.2310 hn         1 AAT       0.335300
@<TRIPOS>BOND
     1     1     2 1   
     2     1    30 1   
     3     1    31 1   
     4     2     3 1   
     5     2    32 1   
     6     2    33 1   
     7     3     4 2   
     8     3    34 1   
     9     4     5 1   
    10     4    24 1   
    11     5     6 1   
    12     6     7 1   
    13     6    35 1   
    14     6    36 1   
    15     7     8 1   
    16     7     9 1   
    17     7    37 1   
    18     8    13 1   
    19     9    10 1   
    20     9    11 1   
    21     9    38 1   
    22    10    39 1   
    23    11    12 1   
    24    11    13 1   
    25    11    40 1   
    26    12    41 1   
    27    13    14 1   
    28    13    42 1   
    29    14    15 1   
    30    14    23 1   
    31    15    16 2   
    32    15    43 1   
    33    16    17 1   
    34    17    18 ar  
    35    17    23 ar  
    36    18    19 1   
    37    18    20 ar  
    38    19    44 1   
    39    19    45 1   
    40    20    21 ar  
    41    21    22 ar  
    42    21    46 1   
    43    22    23 ar  
    44    24    25 1   
    45    24    47 1   
    46    24    48 1   
    47    25    26 1   
    48    25    49 1   
    49    25    50 1   
    50    26    27 1   
    51    26    51 1   
    52    26    52 1   
    53    27    28 1   
    54    27    53 1   
    55    27    54 1   
    56    28    29 1   
    57    28    55 1   
    58    28    56 1   
    59    29    57 1   
    60    29    58 1   
@<TRIPOS>SUBSTRUCTURE
     1 AAT         1 TEMP              0 ****  ****    0 ROOT
