@<TRIPOS>MOLECULE
AAT
   58    60     1     0     0
SMALL
No Charge or Current Charge


@<TRIPOS>ATOM
      1 N           -2.6600    -2.0590     4.8810 n8         1 AAT      -0.999200
      2 CA          -1.6990    -2.2210     3.7840 c3         1 AAT       0.190000
      3 CB          -1.9340    -1.1480     2.7500 c2         1 AAT      -0.234200
      4 CG          -1.3240     0.0530     2.6660 c2         1 AAT       0.005400
      5 SD          -1.6740     1.2360     1.3540 ss         1 AAT      -0.266600
      6 C5          -2.8630     0.3830     0.2190 c3         1 AAT      -0.003400
      7 C4          -3.1150     1.1900    -1.0860 c5         1 AAT       0.180300
      8 O4          -1.8870     1.3630    -1.8280 os         1 AAT      -0.433000
      9 C3          -4.0340     0.4850    -2.1260 c5         1 AAT       0.111300
     10 O3          -4.5210     1.3710    -3.1390 oh         1 AAT      -0.702000
     11 C2          -3.0410    -0.5340    -2.7770 c5         1 AAT       0.082300
     12 O2          -3.4020    -0.7580    -4.1590 oh         1 AAT      -0.693000
     13 C1          -1.6230     0.1550    -2.5810 c5         1 AAT       0.315300
     14 N9          -0.5660    -0.6280    -1.9160 na         1 AAT      -0.292300
     15 C8          -0.5430    -2.0220    -1.7640 cc         1 AAT       0.410700
     16 N7           0.5610    -2.4350    -1.1170 nd         1 AAT      -0.553100
     17 C7           1.2530    -1.2460    -0.8750 ca         1 AAT      -0.101600
     18 C6           2.4960    -1.0490    -0.2390 ca         1 AAT       0.451900
     19 N6           3.2340    -2.0770     0.2590 nv         1 AAT      -1.066900
     20 N1           3.0230     0.1770    -0.1050 nb         1 AAT      -0.304000
     21 C10          2.2910     1.1960    -0.6160 ca         1 AAT       0.183900
     22 N3           1.0950     1.1000    -1.2440 nb         1 AAT      -0.218000
     23 C9           0.5880    -0.1450    -1.3560 ca         1 AAT       0.141500
     24 C11         -0.2780     0.5460     3.6540 c3         1 AAT      -0.030200
     25 C12          1.1590     0.4010     3.1070 c3         1 AAT      -0.073400
     26 C13          2.2390     0.8810     4.1020 c3         1 AAT      -0.075400
     27 C14          3.6750     0.7560     3.5480 c3         1 AAT      -0.078400
     28 C15          4.7450     1.2340     4.5510 c3         1 AAT       0.148800
     29 N16          6.1060     1.1040     3.9980 n8         1 AAT      -0.994200
     30 HN1         -2.4410    -2.7380     5.6190 hn         1 AAT       0.395500
     31 HN2         -2.4950    -1.1500     5.3270 hn         1 AAT       0.395500
     32 HCA1        -1.8410    -3.2140     3.3340 h1         1 AAT       0.035700
     33 HCA2        -0.6760    -2.1730     4.1820 h1         1 AAT       0.035700
     34 HCB         -2.6840    -1.4510     2.0260 ha         1 AAT       0.179000
     35 H5'1        -2.4680    -0.6090    -0.0280 h1         1 AAT       0.067700
     36 H5'2        -3.8170     0.2490     0.7450 h1         1 AAT       0.067700
     37 H4'C        -3.5120     2.1770    -0.8090 h1         1 AAT       0.108700
     38 H3'C        -4.8730    -0.0300    -1.6360 h1         1 AAT       0.057700
     39 H3'O        -4.3120     0.8630    -3.9670 ho         1 AAT       0.524000
     40 H2'C        -3.1010    -1.4770    -2.2170 h1         1 AAT       0.053700
     41 H2'O        -3.0210    -1.6260    -4.4400 ho         1 AAT       0.515000
     42 H1'C        -1.2060     0.4310    -3.5580 h2         1 AAT       0.127700
     43 HC8         -1.3270    -2.6680    -2.1410 h5         1 AAT       0.069800
     44 HN61         3.9650    -1.8610     0.9290 hn         1 AAT       0.507500
     45 HN62         2.7710    -2.9770     0.3540 hn         1 AAT       0.507500
     46 HC2          2.7090     2.1960    -0.5140 h5         1 AAT       0.046100
     47 H111        -0.3500     0.0100     4.6080 hc         1 AAT       0.053700
     48 H112        -0.4670     1.5990     3.8950 hc         1 AAT       0.053700
     49 H121         1.2460     0.9770     2.1780 hc         1 AAT       0.046200
     50 H122         1.3410    -0.6500     2.8500 hc         1 AAT       0.046200
     51 H131         2.1580     0.2980     5.0280 hc         1 AAT       0.037200
     52 H132         2.0460     1.9280     4.3650 hc         1 AAT       0.037200
     53 H141         3.7570     1.3440     2.6260 hc         1 AAT       0.047200
     54 H142         3.8680    -0.2910     3.2820 hc         1 AAT       0.047200
     55 H151         4.6820     0.6380     5.4730 h1         1 AAT       0.026200
     56 H152         4.5680     2.2880     4.8050 h1         1 AAT       0.026200
     57 H161         6.7860     1.3790     4.7180 hn         1 AAT       0.390500
     58 H162         6.3090     0.1100     3.8420 hn         1 AAT       0.390500
@<TRIPOS>BOND
     1     1     2 1   
     2     1    30 1   
     3     1    31 1   
     4     2     3 1   
     5     2    32 1   
     6     2    33 1   
     7     3     4 2   
     8     3    34 1   
     9     4     5 1   
    10     4    24 1   
    11     5     6 1   
    12     6     7 1   
    13     6    35 1   
    14     6    36 1   
    15     7     8 1   
    16     7     9 1   
    17     7    37 1   
    18     8    13 1   
    19     9    10 1   
    20     9    11 1   
    21     9    38 1   
    22    10    39 1   
    23    11    12 1   
    24    11    13 1   
    25    11    40 1   
    26    12    41 1   
    27    13    14 1   
    28    13    42 1   
    29    14    15 1   
    30    14    23 1   
    31    15    16 2   
    32    15    43 1   
    33    16    17 1   
    34    17    18 ar  
    35    17    23 ar  
    36    18    19 1   
    37    18    20 ar  
    38    19    44 1   
    39    19    45 1   
    40    20    21 ar  
    41    21    22 ar  
    42    21    46 1   
    43    22    23 ar  
    44    24    25 1   
    45    24    47 1   
    46    24    48 1   
    47    25    26 1   
    48    25    49 1   
    49    25    50 1   
    50    26    27 1   
    51    26    51 1   
    52    26    52 1   
    53    27    28 1   
    54    27    53 1   
    55    27    54 1   
    56    28    29 1   
    57    28    55 1   
    58    28    56 1   
    59    29    57 1   
    60    29    58 1   
@<TRIPOS>SUBSTRUCTURE
     1 AAT         1 TEMP              0 ****  ****    0 ROOT
