@<TRIPOS>MOLECULE
AAU
   86    90     1     0     0
SMALL
No Charge or Current Charge


@<TRIPOS>ATOM
      1 C1          -3.1670     3.2510    -2.2150 c3         1 AAU       0.153900
      2 O2          -4.1930     2.3970    -1.6740 os         1 AAU      -0.371100
      3 C3          -4.0470     1.0220    -1.6030 ca         1 AAU       0.045100
      4 C4          -2.9190     0.3500    -2.1250 ca         1 AAU      -0.134000
      5 C5          -2.8190    -1.0540    -2.0330 ca         1 AAU      -0.112300
      6 C6          -1.6040    -1.7830    -2.6050 c3         1 AAU       0.159300
      7 N7          -0.3640    -1.5970    -1.8000 n          1 AAU      -0.430800
      8 C8           0.0610    -2.7790    -0.9810 c3         1 AAU       0.140700
      9 C9          -0.7570    -2.8590     0.3500 c3         1 AAU      -0.044100
     10 C10         -0.5450    -4.1250     1.1740 ca         1 AAU      -0.066300
     11 C11          0.0050    -4.0490     2.4690 ca         1 AAU      -0.100500
     12 C12          0.1860    -5.2150     3.2330 ca         1 AAU      -0.108500
     13 C13         -0.1880    -6.4640     2.7100 ca         1 AAU      -0.110000
     14 C14         -0.7460    -6.5460     1.4240 ca         1 AAU      -0.108500
     15 C15         -0.9260    -5.3800     0.6590 ca         1 AAU      -0.100500
     16 C16          1.6170    -2.9270    -0.8350 c3         1 AAU       0.151300
     17 O17          1.9940    -4.2870    -0.5550 oh         1 AAU      -0.641000
     18 C18          2.1790    -1.9890     0.2430 c3         1 AAU       0.066000
     19 N19          1.5710    -0.6530     0.1450 n          1 AAU      -0.275400
     20 N20          1.4820    -0.0350    -1.1780 n          1 AAU      -0.305400
     21 C21          2.5610     0.8780    -1.6470 c3         1 AAU       0.170300
     22 C22          3.8240     0.9090    -0.7900 ca         1 AAU      -0.119300
     23 C23          4.8300    -0.0570    -0.9860 ca         1 AAU      -0.092000
     24 C24          5.9900    -0.0430    -0.1940 ca         1 AAU      -0.134000
     25 C25          6.1540     0.9410     0.7920 ca         1 AAU       0.129100
     26 O26          7.2800     0.9520     1.5630 oh         1 AAU      -0.532100
     27 C27          5.1620     1.9230     0.9920 ca         1 AAU       0.045100
     28 O28          5.3720     2.8730     1.9790 os         1 AAU      -0.366100
     29 C29          4.4010     3.8920     2.2830 c3         1 AAU       0.153900
     30 C30          3.9990     1.9080     0.1900 ca         1 AAU      -0.133000
     31 C31          0.4720    -0.4780    -2.0800 c          1 AAU       0.632000
     32 O32          0.3150     0.1470    -3.1210 o          1 AAU      -0.594000
     33 C33          1.4050     0.1850     1.2840 c          1 AAU       0.617100
     34 O34          1.7600    -0.1950     2.3930 o          1 AAU      -0.592100
     35 C35          0.6440     1.5170     1.1450 c3         1 AAU      -0.153400
     36 C36         -0.8830     1.2630     1.1790 c3         1 AAU      -0.016100
     37 C37         -1.7680     2.5130     1.2100 ca         1 AAU      -0.124300
     38 C38         -3.1280     2.3580     1.5480 ca         1 AAU      -0.068000
     39 C39         -3.9880     3.4700     1.5870 ca         1 AAU      -0.173500
     40 C40         -3.4960     4.7470     1.2820 ca         1 AAU       0.134100
     41 O41         -4.3230     5.8300     1.3140 oh         1 AAU      -0.536100
     42 C42         -2.1480     4.9140     0.9400 ca         1 AAU      -0.173500
     43 C43         -1.2830     3.8050     0.9040 ca         1 AAU      -0.068000
     44 C44         -3.8600    -1.7840    -1.4230 ca         1 AAU      -0.096000
     45 C45         -4.9800    -1.1190    -0.8970 ca         1 AAU      -0.129000
     46 C46         -5.0720     0.2780    -0.9870 ca         1 AAU       0.122100
     47 O47         -6.1610     0.9250    -0.4810 oh         1 AAU      -0.535100
     48 H11A        -3.4650     4.3040    -2.1310 h1         1 AAU       0.045367
     49 H12A        -2.2240     3.1210    -1.6700 h1         1 AAU       0.045367
     50 H13A        -2.9930     3.0290    -3.2750 h1         1 AAU       0.045367
     51 H4          -2.1200     0.9030    -2.6080 ha         1 AAU       0.140000
     52 H61         -1.8380    -2.8530    -2.6780 h1         1 AAU       0.061700
     53 H62         -1.4390    -1.4450    -3.6360 h1         1 AAU       0.061700
     54 H8          -0.2330    -3.6630    -1.5610 h1         1 AAU       0.060700
     55 H91         -0.5660    -1.9700     0.9590 hc         1 AAU       0.059200
     56 H92         -1.8210    -2.8000     0.1030 hc         1 AAU       0.059200
     57 H11          0.2940    -3.0870     2.8870 ha         1 AAU       0.109500
     58 H12          0.6140    -5.1490     4.2310 ha         1 AAU       0.110000
     59 H13         -0.0480    -7.3660     3.3020 ha         1 AAU       0.110000
     60 H14         -1.0400    -7.5120     1.0190 ha         1 AAU       0.110000
     61 H15         -1.3630    -5.4530    -0.3340 ha         1 AAU       0.109500
     62 H16          2.0600    -2.6390    -1.7980 h1         1 AAU       0.041700
     63 H17          2.9640    -4.3600    -0.6900 ho         1 AAU       0.451000
     64 H181         1.9680    -2.4140     1.2320 h1         1 AAU       0.074200
     65 H182         3.2670    -1.9050     0.1390 h1         1 AAU       0.074200
     66 H211         2.8470     0.5780    -2.6640 h1         1 AAU       0.067200
     67 H212         2.1490     1.8920    -1.7270 h1         1 AAU       0.067200
     68 H23          4.7080    -0.8260    -1.7470 ha         1 AAU       0.122000
     69 H24          6.7610    -0.7940    -0.3440 ha         1 AAU       0.133000
     70 H26          7.1860     1.7150     2.1760 ho         1 AAU       0.484000
     71 H291         4.7610     4.5290     3.1010 h1         1 AAU       0.045367
     72 H292         4.2190     4.5320     1.4100 h1         1 AAU       0.045367
     73 H293         3.4490     3.4440     2.5960 h1         1 AAU       0.045367
     74 H30          3.2260     2.6600     0.3170 ha         1 AAU       0.121000
     75 H351         0.9190     2.1760     1.9770 hc         1 AAU       0.072700
     76 H352         0.8580     1.9960     0.1870 hc         1 AAU       0.072700
     77 H361        -1.1570     0.6500     0.3110 hc         1 AAU       0.060200
     78 H362        -1.1070     0.6490     2.0610 hc         1 AAU       0.060200
     79 H38         -3.5220     1.3700     1.7790 ha         1 AAU       0.115500
     80 H39         -5.0330     3.3280     1.8510 ha         1 AAU       0.121000
     81 H41         -5.2180     5.5280     1.5780 ho         1 AAU       0.465000
     82 H42         -1.7680     5.9040     0.7020 ha         1 AAU       0.121000
     83 H43         -0.2440     3.9680     0.6310 ha         1 AAU       0.115500
     84 H44         -3.8020    -2.8680    -1.3550 ha         1 AAU       0.114000
     85 H45         -5.7780    -1.6860    -0.4250 ha         1 AAU       0.131000
     86 H47         -6.0130     1.8810    -0.6580 ho         1 AAU       0.478000
@<TRIPOS>BOND
     1     1     2 1   
     2     1    48 1   
     3     1    49 1   
     4     1    50 1   
     5     2     3 1   
     6     3     4 ar  
     7     3    46 ar  
     8     4     5 ar  
     9     4    51 1   
    10     5     6 1   
    11     5    44 ar  
    12     6     7 1   
    13     6    52 1   
    14     6    53 1   
    15     7     8 1   
    16     7    31 1   
    17     8     9 1   
    18     8    16 1   
    19     8    54 1   
    20     9    10 1   
    21     9    55 1   
    22     9    56 1   
    23    10    11 ar  
    24    10    15 ar  
    25    11    12 ar  
    26    11    57 1   
    27    12    13 ar  
    28    12    58 1   
    29    13    14 ar  
    30    13    59 1   
    31    14    15 ar  
    32    14    60 1   
    33    15    61 1   
    34    16    17 1   
    35    16    18 1   
    36    16    62 1   
    37    17    63 1   
    38    18    19 1   
    39    18    64 1   
    40    18    65 1   
    41    19    20 1   
    42    19    33 1   
    43    20    21 1   
    44    20    31 1   
    45    21    22 1   
    46    21    66 1   
    47    21    67 1   
    48    22    23 ar  
    49    22    30 ar  
    50    23    24 ar  
    51    23    68 1   
    52    24    25 ar  
    53    24    69 1   
    54    25    26 1   
    55    25    27 ar  
    56    26    70 1   
    57    27    28 1   
    58    27    30 ar  
    59    28    29 1   
    60    29    71 1   
    61    29    72 1   
    62    29    73 1   
    63    30    74 1   
    64    31    32 2   
    65    33    34 2   
    66    33    35 1   
    67    35    36 1   
    68    35    75 1   
    69    35    76 1   
    70    36    37 1   
    71    36    77 1   
    72    36    78 1   
    73    37    38 ar  
    74    37    43 ar  
    75    38    39 ar  
    76    38    79 1   
    77    39    40 ar  
    78    39    80 1   
    79    40    41 1   
    80    40    42 ar  
    81    41    81 1   
    82    42    43 ar  
    83    42    82 1   
    84    43    83 1   
    85    44    45 ar  
    86    44    84 1   
    87    45    46 ar  
    88    45    85 1   
    89    46    47 1   
    90    47    86 1   
@<TRIPOS>SUBSTRUCTURE
     1 AAU         1 TEMP              0 ****  ****    0 ROOT
