@<TRIPOS>MOLECULE
AAU
   86    90     1     0     0
SMALL
abcg2


@<TRIPOS>ATOM
      1 C1          -3.2280     3.0780    -2.2840 c3         1 AAU       0.153900
      2 O2          -4.2690     2.1750    -1.9700 os         1 AAU      -0.371100
      3 C3          -3.9590     0.8760    -1.7690 ca         1 AAU       0.045100
      4 C4          -2.7860     0.2640    -2.1710 ca         1 AAU      -0.134000
      5 C5          -2.5750    -1.1010    -1.9440 ca         1 AAU      -0.112300
      6 C6          -1.2970    -1.7690    -2.3900 c3         1 AAU       0.159300
      7 N7          -0.1300    -1.4380    -1.5660 n          1 AAU      -0.430800
      8 C8           0.4000    -2.5420    -0.7510 c3         1 AAU       0.140700
      9 C9          -0.4950    -2.7910     0.4750 c3         1 AAU      -0.044100
     10 C10         -0.2420    -4.0930     1.1830 ca         1 AAU      -0.066300
     11 C11          0.2920    -4.1200     2.4670 ca         1 AAU      -0.100500
     12 C12          0.5150    -5.3240     3.1230 ca         1 AAU      -0.108500
     13 C13          0.2020    -6.5240     2.4990 ca         1 AAU      -0.110000
     14 C14         -0.3430    -6.5090     1.2200 ca         1 AAU      -0.108500
     15 C15         -0.5660    -5.3030     0.5730 ca         1 AAU      -0.100500
     16 C16          1.8990    -2.3960    -0.4540 c3         1 AAU       0.151300
     17 O17          2.3870    -3.6580    -0.0770 oh         1 AAU      -0.641000
     18 C18          2.1630    -1.3670     0.6400 c3         1 AAU       0.066000
     19 N19          1.3630    -0.1900     0.3620 n          1 AAU      -0.275400
     20 N20          1.3560     0.2650    -0.9280 n          1 AAU      -0.305400
     21 C21          2.2920     1.3370    -1.2600 c3         1 AAU       0.170300
     22 C22          3.6860     0.9960    -0.8200 ca         1 AAU      -0.119300
     23 C23          4.4780     0.1430    -1.5740 ca         1 AAU      -0.092000
     24 C24          5.7280    -0.2510    -1.1130 ca         1 AAU      -0.134000
     25 C25          6.2010     0.2020     0.1070 ca         1 AAU       0.129100
     26 O26          7.4140    -0.1990     0.5340 oh         1 AAU      -0.532100
     27 C27          5.4090     1.0750     0.8720 ca         1 AAU       0.045100
     28 O28          5.9590     1.4600     2.0440 os         1 AAU      -0.366100
     29 C29          5.1910     2.2640     2.9170 c3         1 AAU       0.153900
     30 C30          4.1650     1.4660     0.4030 ca         1 AAU      -0.133000
     31 C31          0.5060    -0.2700    -1.8710 c          1 AAU       0.632000
     32 O32          0.3260     0.3250    -2.9250 o          1 AAU      -0.594000
     33 C33          0.6020     0.4240     1.3180 c          1 AAU       0.617100
     34 O34          0.6980     0.0990     2.4870 o          1 AAU      -0.592100
     35 C35         -0.3900     1.4620     0.8430 c3         1 AAU      -0.153400
     36 C36         -1.1070     2.1460     2.0030 c3         1 AAU      -0.016100
     37 C37         -2.1410     3.1220     1.5130 ca         1 AAU      -0.124300
     38 C38         -3.4750     2.7510     1.3810 ca         1 AAU      -0.068000
     39 C39         -4.4340     3.6420     0.9220 ca         1 AAU      -0.173500
     40 C40         -4.0670     4.9370     0.5700 ca         1 AAU       0.134100
     41 O41         -4.9520     5.8490     0.1110 oh         1 AAU      -0.536100
     42 C42         -2.7350     5.3250     0.6890 ca         1 AAU      -0.173500
     43 C43         -1.7930     4.4230     1.1560 ca         1 AAU      -0.068000
     44 C44         -3.5760    -1.8300    -1.3200 ca         1 AAU      -0.096000
     45 C45         -4.7570    -1.2200    -0.9050 ca         1 AAU      -0.129000
     46 C46         -4.9550     0.1310    -1.1160 ca         1 AAU       0.122100
     47 O47         -6.0980     0.7160    -0.7030 oh         1 AAU      -0.535100
     48 H11A        -3.6750     4.0680    -2.3110 h1         1 AAU       0.045367
     49 H12A        -2.4450     3.0650    -1.5220 h1         1 AAU       0.045367
     50 H13A        -2.7870     2.8680    -3.2610 h1         1 AAU       0.045367
     51 H4          -2.0270     0.8360    -2.6860 ha         1 AAU       0.140000
     52 H61         -1.4310    -2.8500    -2.3440 h1         1 AAU       0.061700
     53 H62         -1.0890    -1.5320    -3.4330 h1         1 AAU       0.061700
     54 H8           0.3350    -3.4290    -1.3910 h1         1 AAU       0.060700
     55 H91         -0.4190    -1.9660     1.1820 hc         1 AAU       0.059200
     56 H92         -1.5300    -2.7810     0.1270 hc         1 AAU       0.059200
     57 H11          0.5350    -3.1850     2.9600 ha         1 AAU       0.109500
     58 H12          0.9320    -5.3230     4.1220 ha         1 AAU       0.110000
     59 H13          0.3760    -7.4640     3.0060 ha         1 AAU       0.110000
     60 H14         -0.5990    -7.4390     0.7300 ha         1 AAU       0.110000
     61 H15         -1.0030    -5.3040    -0.4200 ha         1 AAU       0.109500
     62 H16          2.3860    -2.0750    -1.3840 h1         1 AAU       0.041700
     63 H17          3.3480    -3.6270    -0.0950 ho         1 AAU       0.451000
     64 H181         1.8620    -1.7670     1.6050 h1         1 AAU       0.074200
     65 H182         3.2260    -1.1210     0.7020 h1         1 AAU       0.074200
     66 H211         2.2480     1.4900    -2.3350 h1         1 AAU       0.067200
     67 H212         1.9640     2.2700    -0.7920 h1         1 AAU       0.067200
     68 H23          4.1230    -0.2310    -2.5260 ha         1 AAU       0.122000
     69 H24          6.3440    -0.9200    -1.7010 ha         1 AAU       0.133000
     70 H26          7.6080     0.1850     1.3970 ho         1 AAU       0.484000
     71 H291         5.7960     2.4220     3.8060 h1         1 AAU       0.045367
     72 H292         4.9560     3.2350     2.4730 h1         1 AAU       0.045367
     73 H293         4.2600     1.7700     3.2050 h1         1 AAU       0.045367
     74 H30          3.5410     2.1310     0.9880 ha         1 AAU       0.121000
     75 H351         0.0930     2.2110     0.2110 hc         1 AAU       0.072700
     76 H352        -1.1240     0.9620     0.2000 hc         1 AAU       0.072700
     77 H361        -1.5850     1.3950     2.6330 hc         1 AAU       0.060200
     78 H362        -0.3770     2.6630     2.6290 hc         1 AAU       0.060200
     79 H38         -3.7810     1.7470     1.6500 ha         1 AAU       0.115500
     80 H39         -5.4690     3.3270     0.8480 ha         1 AAU       0.121000
     81 H41         -5.8370     5.4690     0.0760 ho         1 AAU       0.465000
     82 H42         -2.4430     6.3320     0.4180 ha         1 AAU       0.121000
     83 H43         -0.7620     4.7460     1.2500 ha         1 AAU       0.115500
     84 H44         -3.4510    -2.8930    -1.1510 ha         1 AAU       0.114000
     85 H45         -5.5270    -1.7980    -0.4110 ha         1 AAU       0.131000
     86 H47         -6.0760     1.6550    -0.9260 ho         1 AAU       0.478000
@<TRIPOS>BOND
     1     1     2 1   
     2     1    48 1   
     3     1    49 1   
     4     1    50 1   
     5     2     3 1   
     6     3     4 ar  
     7     3    46 ar  
     8     4     5 ar  
     9     4    51 1   
    10     5     6 1   
    11     5    44 ar  
    12     6     7 1   
    13     6    52 1   
    14     6    53 1   
    15     7     8 1   
    16     7    31 1   
    17     8     9 1   
    18     8    16 1   
    19     8    54 1   
    20     9    10 1   
    21     9    55 1   
    22     9    56 1   
    23    10    11 ar  
    24    10    15 ar  
    25    11    12 ar  
    26    11    57 1   
    27    12    13 ar  
    28    12    58 1   
    29    13    14 ar  
    30    13    59 1   
    31    14    15 ar  
    32    14    60 1   
    33    15    61 1   
    34    16    17 1   
    35    16    18 1   
    36    16    62 1   
    37    17    63 1   
    38    18    19 1   
    39    18    64 1   
    40    18    65 1   
    41    19    20 1   
    42    19    33 1   
    43    20    21 1   
    44    20    31 1   
    45    21    22 1   
    46    21    66 1   
    47    21    67 1   
    48    22    23 ar  
    49    22    30 ar  
    50    23    24 ar  
    51    23    68 1   
    52    24    25 ar  
    53    24    69 1   
    54    25    26 1   
    55    25    27 ar  
    56    26    70 1   
    57    27    28 1   
    58    27    30 ar  
    59    28    29 1   
    60    29    71 1   
    61    29    72 1   
    62    29    73 1   
    63    30    74 1   
    64    31    32 2   
    65    33    34 2   
    66    33    35 1   
    67    35    36 1   
    68    35    75 1   
    69    35    76 1   
    70    36    37 1   
    71    36    77 1   
    72    36    78 1   
    73    37    38 ar  
    74    37    43 ar  
    75    38    39 ar  
    76    38    79 1   
    77    39    40 ar  
    78    39    80 1   
    79    40    41 1   
    80    40    42 ar  
    81    41    81 1   
    82    42    43 ar  
    83    42    82 1   
    84    43    83 1   
    85    44    45 ar  
    86    44    84 1   
    87    45    46 ar  
    88    45    85 1   
    89    46    47 1   
    90    47    86 1   
@<TRIPOS>SUBSTRUCTURE
     1 AAU         1 TEMP              0 ****  ****    0 ROOT
