@<TRIPOS>MOLECULE
AAV
   57    61     1     0     0
SMALL
abcg2


@<TRIPOS>ATOM
      1 C1           9.0380     2.4230    -1.3510 c3         1 AAV       0.151100
      2 N2           8.0060     1.4870    -0.9690 n3         1 AAV      -0.711600
      3 C3           7.8460     1.4200     0.4650 c6         1 AAV       0.154300
      4 C4           6.8320     0.3640     0.8610 c6         1 AAV       0.204300
      5 N5           5.5570     0.5750     0.1970 nh         1 AAV      -0.791400
      6 C6           5.6900     0.7660    -1.2410 c6         1 AAV       0.204300
      7 C7           6.7330     1.8140    -1.5700 c6         1 AAV       0.154300
      8 C8           4.4400    -0.0880     0.6710 ca         1 AAV       0.305000
      9 C9           4.4690    -0.8190     1.8840 ca         1 AAV      -0.145000
     10 C10          3.3510    -1.4430     2.3860 ca         1 AAV      -0.061000
     11 C11          2.1320    -1.3990     1.7050 ca         1 AAV       0.126400
     12 N12          1.0320    -2.0410     2.2260 nc         1 AAV      -0.603100
     13 C13         -0.0520    -1.9830     1.5560 cd         1 AAV       0.492800
     14 N14         -0.2010    -1.3280     0.3580 n          1 AAV      -0.268500
     15 C15         -1.4750    -1.3470    -0.2870 ca         1 AAV       0.013600
     16 C16         -2.4380    -0.4490     0.1260 ca         1 AAV      -0.039000
     17 C17         -3.7010    -0.4570    -0.4600 ca         1 AAV      -0.159600
     18 N18         -5.9960     0.2430    -0.2070 ns         1 AAV      -0.476400
     19 C19         -4.6880     0.5490     0.0200 c          1 AAV       0.631700
     20 O20         -4.3390     1.5670     0.5850 o          1 AAV      -0.563100
     21 C22         -7.1200     2.3700     0.6180 cc         1 AAV      -0.233000
     22 C23         -8.4470     2.6020     0.7060 cd         1 AAV       0.170900
     23 O24         -9.1350     1.5380     0.3020 os         1 AAV      -0.059700
     24 C25         -7.0730     1.0420     0.1120 cc         1 AAV       0.400900
     25 C26         -3.9590    -1.3660    -1.4820 ca         1 AAV      -0.068000
     26 C27         -2.9800    -2.2560    -1.8910 ca         1 AAV      -0.119000
     27 C28         -1.7190    -2.2730    -1.3020 ca         1 AAV      -0.021300
     28 C29         -0.6700    -3.2410    -1.7550 c3         1 AAV      -0.057800
     29 N29         -8.2710     0.5560    -0.0720 nd         1 AAV      -0.436300
     30 C30          0.8390    -0.6400    -0.2500 c          1 AAV       0.575600
     31 C31          3.2210    -0.0570    -0.0110 ca         1 AAV      -0.120000
     32 O31          0.6720    -0.0610    -1.3070 o          1 AAV      -0.524000
     33 C32          2.0930    -0.6970     0.4940 ca         1 AAV      -0.152600
     34 H1           9.9910     2.1290    -0.9080 h1         1 AAV       0.033367
     35 H1A          9.1590     2.4240    -2.4350 h1         1 AAV       0.033367
     36 H1B          8.8260     3.4570    -1.0350 h1         1 AAV       0.033367
     37 H3           8.8020     1.1600     0.9270 h1         1 AAV       0.041700
     38 H3A          7.5370     2.3930     0.8870 h1         1 AAV       0.041700
     39 H4           7.2300    -0.6370     0.6400 h1         1 AAV       0.047450
     40 H4A          6.7040     0.4370     1.9400 h1         1 AAV       0.047450
     41 H6           5.9520    -0.1820    -1.7300 h1         1 AAV       0.047450
     42 H6A          4.7500     1.1050    -1.6670 h1         1 AAV       0.047450
     43 H7           6.3700     2.8050    -1.2440 h1         1 AAV       0.041700
     44 H7A          6.8430     1.8540    -2.6560 h1         1 AAV       0.041700
     45 H9           5.3840    -0.9130     2.4480 ha         1 AAV       0.117000
     46 H10          3.4130    -1.9920     3.3170 ha         1 AAV       0.131000
     47 H13         -0.9460    -2.4750     1.9200 h5         1 AAV       0.051800
     48 H16         -2.2080     0.2590     0.9120 ha         1 AAV       0.148000
     49 H23         -9.0170     3.4580     1.0320 h4         1 AAV       0.058100
     50 H26         -4.9120    -1.3830    -1.9940 ha         1 AAV       0.118000
     51 H27         -3.1990    -2.9540    -2.6880 ha         1 AAV       0.124000
     52 H281        -0.1720    -3.7240    -0.9150 hc         1 AAV       0.054700
     53 H282        -1.1050    -4.0170    -2.3800 hc         1 AAV       0.054700
     54 H283         0.0990    -2.7350    -2.3410 hc         1 AAV       0.054700
     55 H31          3.1150     0.4760    -0.9440 ha         1 AAV       0.137000
     56 H18         -6.2310    -0.6650    -0.5780 hn         1 AAV       0.340500
     57 H22         -6.3150     3.0340     0.8690 ha         1 AAV       0.178000
@<TRIPOS>BOND
     1     1     2 1   
     2     1    34 1   
     3     1    35 1   
     4     1    36 1   
     5     2     3 1   
     6     2     7 1   
     7     3     4 1   
     8     3    37 1   
     9     3    38 1   
    10     4     5 1   
    11     4    39 1   
    12     4    40 1   
    13     5     6 1   
    14     5     8 1   
    15     6     7 1   
    16     6    41 1   
    17     6    42 1   
    18     7    43 1   
    19     7    44 1   
    20     8     9 ar  
    21     8    31 ar  
    22     9    10 ar  
    23     9    45 1   
    24    10    11 ar  
    25    10    46 1   
    26    11    12 1   
    27    11    33 ar  
    28    12    13 2   
    29    13    14 1   
    30    13    47 1   
    31    14    15 1   
    32    14    30 1   
    33    15    16 ar  
    34    15    27 ar  
    35    16    17 ar  
    36    16    48 1   
    37    17    19 1   
    38    17    25 ar  
    39    18    19 1   
    40    18    24 1   
    41    18    56 1   
    42    19    20 2   
    43    21    22 2   
    44    21    24 1   
    45    21    57 1   
    46    22    23 1   
    47    22    49 1   
    48    23    29 1   
    49    24    29 2   
    50    25    26 ar  
    51    25    50 1   
    52    26    27 ar  
    53    26    51 1   
    54    27    28 1   
    55    28    52 1   
    56    28    53 1   
    57    28    54 1   
    58    30    32 2   
    59    30    33 1   
    60    31    33 ar  
    61    31    55 1   
@<TRIPOS>SUBSTRUCTURE
     1 AAV         1 TEMP              0 ****  ****    0 ROOT
