@<TRIPOS>MOLECULE
AAV
   57    61     1     0     0
SMALL
No Charge or Current Charge


@<TRIPOS>ATOM
      1 C1           9.1610     2.6390    -1.3580 c3         1 AAV       0.151100
      2 N2           8.2620     1.5930    -0.8250 n3         1 AAV      -0.711600
      3 C3           7.7290     1.9270     0.5320 c6         1 AAV       0.154300
      4 C4           6.8140     0.8030     1.1180 c6         1 AAV       0.204300
      5 N5           5.7110     0.4110     0.1810 nh         1 AAV      -0.791400
      6 C6           6.2010     0.1430    -1.2100 c6         1 AAV       0.204300
      7 C7           7.1290     1.2800    -1.7490 c6         1 AAV       0.154300
      8 C8           4.5370    -0.2250     0.6520 ca         1 AAV       0.305000
      9 C9           4.5380    -0.9910     1.8320 ca         1 AAV      -0.145000
     10 C10          3.3590    -1.6140     2.2790 ca         1 AAV      -0.061000
     11 C11          2.1500    -1.4910     1.5680 ca         1 AAV       0.126400
     12 N12          1.0230    -2.1490     2.0890 nc         1 AAV      -0.603100
     13 C13         -0.0920    -1.9890     1.3640 cd         1 AAV       0.492800
     14 N14         -0.1980    -1.2490     0.1980 n          1 AAV      -0.268500
     15 C15         -1.5260    -1.3050    -0.3370 ca         1 AAV       0.013600
     16 C16         -2.5080    -0.4370     0.1750 ca         1 AAV      -0.039000
     17 C17         -3.8320    -0.4540    -0.3200 ca         1 AAV      -0.159600
     18 N18         -6.1200     0.4410    -0.2650 ns         1 AAV      -0.476400
     19 C19         -4.8530     0.5030     0.2670 c          1 AAV       0.631700
     20 O20         -4.5550     1.2790     1.1620 o          1 AAV      -0.563100
     21 C22         -7.3570     2.1720     1.0300 cc         1 AAV      -0.233000
     22 C23         -8.6470     2.5800     0.9650 cd         1 AAV       0.170900
     23 O24         -9.3020     1.8640    -0.0020 os         1 AAV      -0.059700
     24 C25         -7.2430     1.1670     0.0540 cc         1 AAV       0.400900
     25 C26         -4.1490    -1.3690    -1.3530 ca         1 AAV      -0.068000
     26 C27         -3.1690    -2.2350    -1.8670 ca         1 AAV      -0.119000
     27 C28         -1.8540    -2.2120    -1.3680 ca         1 AAV      -0.021300
     28 C29         -0.8110    -3.1650    -1.9440 c3         1 AAV      -0.057800
     29 N29         -8.3680     0.9380    -0.5940 nd         1 AAV      -0.436300
     30 C30          0.8760    -0.5820    -0.3660 c          1 AAV       0.575600
     31 C31          3.3330    -0.0960    -0.0620 ca         1 AAV      -0.120000
     32 O31          0.7770     0.0670    -1.4010 o          1 AAV      -0.524000
     33 C32          2.1480    -0.7210     0.3880 ca         1 AAV      -0.152600
     34 H1          10.0050     2.8080    -0.6760 h1         1 AAV       0.033367
     35 H1A          9.5690     2.3390    -2.3330 h1         1 AAV       0.033367
     36 H1B          8.6260     3.5890    -1.4870 h1         1 AAV       0.033367
     37 H3           8.5580     2.1020     1.2330 h1         1 AAV       0.041700
     38 H3A          7.1460     2.8590     0.4870 h1         1 AAV       0.041700
     39 H4           7.4370    -0.0750     1.3440 h1         1 AAV       0.047450
     40 H4A          6.3950     1.1630     2.0700 h1         1 AAV       0.047450
     41 H6           6.7620    -0.8030    -1.2240 h1         1 AAV       0.047450
     42 H6A          5.3590     0.0270    -1.9070 h1         1 AAV       0.047450
     43 H7           6.5160     2.1790    -1.9100 h1         1 AAV       0.041700
     44 H7A          7.5140     0.9770    -2.7340 h1         1 AAV       0.041700
     45 H9           5.4510    -1.1210     2.4040 ha         1 AAV       0.117000
     46 H10          3.3840    -2.2050     3.1910 ha         1 AAV       0.131000
     47 H13         -0.9980    -2.4760     1.7070 h5         1 AAV       0.051800
     48 H16         -2.2310     0.2590     0.9660 ha         1 AAV       0.148000
     49 H23         -9.2010     3.3280     1.5180 h4         1 AAV       0.058100
     50 H26         -5.1490    -1.4290    -1.7740 ha         1 AAV       0.118000
     51 H27         -3.4370    -2.9280    -2.6610 ha         1 AAV       0.124000
     52 H281        -0.3400    -3.7620    -1.1540 hc         1 AAV       0.054700
     53 H282        -1.2510    -3.8660    -2.6630 hc         1 AAV       0.054700
     54 H283        -0.0200    -2.6130    -2.4650 hc         1 AAV       0.054700
     55 H31          3.3180     0.5070    -0.9650 ha         1 AAV       0.137000
     56 H18         -6.2350    -0.2410    -0.9980 hn         1 AAV       0.340500
     57 H22         -6.5870     2.5440     1.6920 ha         1 AAV       0.178000
@<TRIPOS>BOND
     1     1     2 1   
     2     1    34 1   
     3     1    35 1   
     4     1    36 1   
     5     2     3 1   
     6     2     7 1   
     7     3     4 1   
     8     3    37 1   
     9     3    38 1   
    10     4     5 1   
    11     4    39 1   
    12     4    40 1   
    13     5     6 1   
    14     5     8 1   
    15     6     7 1   
    16     6    41 1   
    17     6    42 1   
    18     7    43 1   
    19     7    44 1   
    20     8     9 ar  
    21     8    31 ar  
    22     9    10 ar  
    23     9    45 1   
    24    10    11 ar  
    25    10    46 1   
    26    11    12 1   
    27    11    33 ar  
    28    12    13 2   
    29    13    14 1   
    30    13    47 1   
    31    14    15 1   
    32    14    30 1   
    33    15    16 ar  
    34    15    27 ar  
    35    16    17 ar  
    36    16    48 1   
    37    17    19 1   
    38    17    25 ar  
    39    18    19 1   
    40    18    24 1   
    41    18    56 1   
    42    19    20 2   
    43    21    22 2   
    44    21    24 1   
    45    21    57 1   
    46    22    23 1   
    47    22    49 1   
    48    23    29 1   
    49    24    29 2   
    50    25    26 ar  
    51    25    50 1   
    52    26    27 ar  
    53    26    51 1   
    54    27    28 1   
    55    28    52 1   
    56    28    53 1   
    57    28    54 1   
    58    30    32 2   
    59    30    33 1   
    60    31    33 ar  
    61    31    55 1   
@<TRIPOS>SUBSTRUCTURE
     1 AAV         1 TEMP              0 ****  ****    0 ROOT
