@<TRIPOS>MOLECULE
AAX
   58    62     1     0     0
SMALL
No Charge or Current Charge


@<TRIPOS>ATOM
      1 O29         -0.4710    -2.5900     5.1020 o          1 AAX      -0.531500
      2 S27         -0.2450    -1.2230     5.5750 sy         1 AAX       1.149600
      3 O28          0.1730    -0.9180     6.9440 o          1 AAX      -0.531500
      4 N30         -1.7000    -0.4410     5.3510 n7         1 AAX      -0.856300
      5 C31         -1.6890     1.0260     5.2880 c3         1 AAX       0.226800
      6 C32         -3.1180     1.5400     5.1830 cx         1 AAX      -0.136700
      7 C34         -3.8490     1.5390     3.8590 cx         1 AAX      -0.121400
      8 C33         -3.4240     2.8470     4.4860 cx         1 AAX      -0.121400
      9 C6           0.8050    -0.3690     4.3900 ca         1 AAX      -0.319500
     10 C5           1.7970     0.5280     4.8290 ca         1 AAX      -0.004000
     11 C4           2.6070     1.1900     3.8920 ca         1 AAX      -0.195000
     12 C7           0.6200    -0.5910     3.0090 ca         1 AAX      -0.030000
     13 C8           1.4140     0.0800     2.0570 ca         1 AAX       0.273000
     14 C3           2.4260     0.9690     2.5070 ca         1 AAX       0.142100
     15 O2           3.2180     1.6050     1.5580 os         1 AAX      -0.359100
     16 C1           4.2640     2.5260     1.9170 c3         1 AAX       0.152900
     17 N9           1.2460    -0.1350     0.6760 nu         1 AAX      -0.928900
     18 C10          0.1710    -0.3660    -0.1060 cc         1 AAX       0.711900
     19 O14          0.3210    -0.3570    -1.4530 os         1 AAX      -0.288000
     20 C13         -0.9470    -0.5810    -1.8750 cc         1 AAX       0.131500
     21 C12         -1.7950    -0.7060    -0.8020 cd         1 AAX       0.284900
     22 N11         -1.0450    -0.5560     0.3500 nd         1 AAX      -0.739000
     23 C15         -1.3110    -0.6650    -3.2950 ca         1 AAX      -0.104500
     24 C20         -0.3220    -0.4910    -4.2870 ca         1 AAX      -0.081000
     25 C19         -0.6290    -0.5600    -5.6700 cp         1 AAX      -0.032000
     26 C18         -1.9740    -0.8120    -6.0360 ca         1 AAX      -0.094000
     27 C17         -2.9670    -0.9880    -5.0610 ca         1 AAX      -0.107000
     28 C16         -2.6400    -0.9150    -3.6980 ca         1 AAX      -0.093000
     29 C21          0.4340    -0.3750    -6.7100 cp         1 AAX      -0.087000
     30 C26          1.7730    -0.7960    -6.4880 ca         1 AAX       0.346900
     31 N25          2.7740    -0.6570    -7.3910 nb         1 AAX      -0.666000
     32 C24          2.4760    -0.0780    -8.5760 ca         1 AAX       0.337900
     33 C23          1.1870     0.3750    -8.8980 ca         1 AAX      -0.164000
     34 C22          0.1520     0.2270    -7.9610 ca         1 AAX      -0.065000
     35 H30         -2.2050    -0.7320     6.1850 hn         1 AAX       0.474000
     36 H311        -1.1240     1.3770     4.4130 h1         1 AAX       0.056200
     37 H312        -1.2190     1.4580     6.1830 h1         1 AAX       0.056200
     38 H32         -3.7080     1.3130     6.0680 hc         1 AAX       0.075700
     39 H341        -3.3090     1.1980     2.9790 hc         1 AAX       0.075200
     40 H342        -4.9080     1.2920     3.8670 hc         1 AAX       0.075200
     41 H331        -4.1990     3.4800     4.9140 hc         1 AAX       0.075200
     42 H332        -2.6030     3.3870     4.0210 hc         1 AAX       0.075200
     43 H5           1.9490     0.7140     5.8920 ha         1 AAX       0.138000
     44 H4           3.3690     1.8700     4.2610 ha         1 AAX       0.124000
     45 H7          -0.1440    -1.2870     2.6740 ha         1 AAX       0.179000
     46 H11          4.7590     2.9090     1.0160 h1         1 AAX       0.048367
     47 H12A         3.8580     3.3830     2.4700 h1         1 AAX       0.048367
     48 H13          5.0240     2.0330     2.5370 h1         1 AAX       0.048367
     49 HN9          2.0150     0.2260     0.1160 hn         1 AAX       0.531000
     50 H12         -2.8620    -0.8850    -0.7840 h4         1 AAX       0.050100
     51 H20          0.7010    -0.2850    -3.9830 ha         1 AAX       0.126000
     52 H18         -2.2490    -0.8870    -7.0850 ha         1 AAX       0.117000
     53 H17         -3.9940    -1.1840    -5.3620 ha         1 AAX       0.118000
     54 H16         -3.4300    -1.0550    -2.9640 ha         1 AAX       0.118000
     55 H26          2.0520    -1.2780    -5.5520 h4         1 AAX       0.022100
     56 H24          3.2960     0.0260    -9.2860 h4         1 AAX       0.020100
     57 H23          1.0000     0.8360    -9.8640 ha         1 AAX       0.125000
     58 H22         -0.8460     0.5870    -8.1970 ha         1 AAX       0.121000
@<TRIPOS>BOND
     1     1     2 2   
     2     2     3 2   
     3     2     4 1   
     4     2     9 1   
     5     4     5 1   
     6     4    35 1   
     7     5     6 1   
     8     5    36 1   
     9     5    37 1   
    10     6     7 1   
    11     6     8 1   
    12     6    38 1   
    13     7     8 1   
    14     7    39 1   
    15     7    40 1   
    16     8    41 1   
    17     8    42 1   
    18     9    10 ar  
    19     9    12 ar  
    20    10    11 ar  
    21    10    43 1   
    22    11    14 ar  
    23    11    44 1   
    24    12    13 ar  
    25    12    45 1   
    26    13    14 ar  
    27    13    17 1   
    28    14    15 1   
    29    15    16 1   
    30    16    46 1   
    31    16    47 1   
    32    16    48 1   
    33    17    18 1   
    34    17    49 1   
    35    18    19 1   
    36    18    22 2   
    37    19    20 1   
    38    20    21 2   
    39    20    23 1   
    40    21    22 1   
    41    21    50 1   
    42    23    24 ar  
    43    23    28 ar  
    44    24    25 ar  
    45    24    51 1   
    46    25    26 ar  
    47    25    29 1   
    48    26    27 ar  
    49    26    52 1   
    50    27    28 ar  
    51    27    53 1   
    52    28    54 1   
    53    29    30 ar  
    54    29    34 ar  
    55    30    31 ar  
    56    30    55 1   
    57    31    32 ar  
    58    32    33 ar  
    59    32    56 1   
    60    33    34 ar  
    61    33    57 1   
    62    34    58 1   
@<TRIPOS>SUBSTRUCTURE
     1 AAX         1 TEMP              0 ****  ****    0 ROOT
