@<TRIPOS>MOLECULE
AAX
   58    62     1     0     0
SMALL
abcg2


@<TRIPOS>ATOM
      1 O29         -1.3280    -1.5970     4.8210 o          1 AAX      -0.531500
      2 S27         -0.4910    -0.5630     5.4100 sy         1 AAX       1.149600
      3 O28          0.1370    -0.7880     6.7020 o          1 AAX      -0.531500
      4 N30         -1.4380     0.7700     5.5920 n7         1 AAX      -0.856300
      5 C31         -2.1540     1.3000     4.4290 c3         1 AAX       0.226800
      6 C32         -3.2180     2.2620     4.8750 cx         1 AAX      -0.136700
      7 C34         -4.5040     1.7330     5.4250 cx         1 AAX      -0.121400
      8 C33         -4.4760     2.3700     4.0680 cx         1 AAX      -0.121400
      9 C6           0.7750    -0.1600     4.2440 ca         1 AAX      -0.319500
     10 C5           1.9730     0.3600     4.6940 ca         1 AAX      -0.004000
     11 C4           2.9410     0.7210     3.7650 ca         1 AAX      -0.195000
     12 C7           0.5140    -0.3270     2.8860 ca         1 AAX      -0.030000
     13 C8           1.4710     0.0430     1.9560 ca         1 AAX       0.273000
     14 C3           2.7030     0.5700     2.4080 ca         1 AAX       0.142100
     15 O2           3.5720     0.8900     1.4410 os         1 AAX      -0.359100
     16 C1           4.8510     1.3880     1.7970 c3         1 AAX       0.152900
     17 N9           1.3100    -0.0700     0.5830 nu         1 AAX      -0.928900
     18 C10          0.2210    -0.5180    -0.0770 cc         1 AAX       0.711900
     19 O14          0.2920    -0.4750    -1.4100 os         1 AAX      -0.288000
     20 C13         -0.9080    -0.9710    -1.8540 cc         1 AAX       0.131500
     21 C12         -1.6250    -1.2790    -0.7500 cd         1 AAX       0.284900
     22 N11         -0.8940    -0.9870     0.3810 nd         1 AAX      -0.739000
     23 C15         -1.1430    -1.0490    -3.2810 ca         1 AAX      -0.104500
     24 C20         -0.2400    -0.5100    -4.1980 ca         1 AAX      -0.081000
     25 C19         -0.4830    -0.5750    -5.5690 cp         1 AAX      -0.032000
     26 C18         -1.6490    -1.1890    -6.0230 ca         1 AAX      -0.094000
     27 C17         -2.5520    -1.7270    -5.1160 ca         1 AAX      -0.107000
     28 C16         -2.3060    -1.6630    -3.7560 ca         1 AAX      -0.093000
     29 C21          0.4790     0.0020    -6.5250 cp         1 AAX      -0.087000
     30 C26          1.8550    -0.1000    -6.3180 ca         1 AAX       0.346900
     31 N25          2.7680     0.3990    -7.1390 nb         1 AAX      -0.666000
     32 C24          2.3500     1.0340    -8.2280 ca         1 AAX       0.337900
     33 C23          1.0080     1.1900    -8.5390 ca         1 AAX      -0.164000
     34 C22          0.0610     0.6680    -7.6750 ca         1 AAX      -0.065000
     35 H30         -0.9620     1.4860     6.1300 hn         1 AAX       0.474000
     36 H311        -2.6140     0.4650     3.9000 h1         1 AAX       0.056200
     37 H312        -1.4690     1.7940     3.7320 h1         1 AAX       0.056200
     38 H32         -2.8450     3.1850     5.3070 hc         1 AAX       0.075700
     39 H341        -4.6230     0.6580     5.4800 hc         1 AAX       0.075200
     40 H342        -4.9730     2.2740     6.2360 hc         1 AAX       0.075200
     41 H331        -4.9220     3.3490     3.9490 hc         1 AAX       0.075200
     42 H332        -4.5770     1.7270     3.2030 hc         1 AAX       0.075200
     43 H5           2.1780     0.4850     5.7480 ha         1 AAX       0.138000
     44 H4           3.8800     1.1190     4.1210 ha         1 AAX       0.124000
     45 H7          -0.4210    -0.7490     2.5470 ha         1 AAX       0.179000
     46 H11          5.3880     1.5440     0.8660 h1         1 AAX       0.048367
     47 H12A         4.7770     2.3380     2.3300 h1         1 AAX       0.048367
     48 H13          5.4010     0.6720     2.4120 h1         1 AAX       0.048367
     49 HN9          2.0850     0.2360     0.0130 hn         1 AAX       0.531000
     50 H12         -2.6190    -1.6890    -0.6860 h4         1 AAX       0.050100
     51 H20          0.6530    -0.0100    -3.8460 ha         1 AAX       0.126000
     52 H18         -1.8480    -1.2670    -7.0840 ha         1 AAX       0.117000
     53 H17         -3.4510    -2.2080    -5.4740 ha         1 AAX       0.118000
     54 H16         -3.0190    -2.0960    -3.0660 ha         1 AAX       0.118000
     55 H26          2.2330    -0.6300    -5.4490 h4         1 AAX       0.022100
     56 H24          3.1150     1.4340    -8.8830 h4         1 AAX       0.020100
     57 H23          0.7120     1.7160    -9.4370 ha         1 AAX       0.125000
     58 H22         -0.9940     0.7930    -7.8850 ha         1 AAX       0.121000
@<TRIPOS>BOND
     1     1     2 2   
     2     2     3 2   
     3     2     4 1   
     4     2     9 1   
     5     4     5 1   
     6     4    35 1   
     7     5     6 1   
     8     5    36 1   
     9     5    37 1   
    10     6     7 1   
    11     6     8 1   
    12     6    38 1   
    13     7     8 1   
    14     7    39 1   
    15     7    40 1   
    16     8    41 1   
    17     8    42 1   
    18     9    10 ar  
    19     9    12 ar  
    20    10    11 ar  
    21    10    43 1   
    22    11    14 ar  
    23    11    44 1   
    24    12    13 ar  
    25    12    45 1   
    26    13    14 ar  
    27    13    17 1   
    28    14    15 1   
    29    15    16 1   
    30    16    46 1   
    31    16    47 1   
    32    16    48 1   
    33    17    18 1   
    34    17    49 1   
    35    18    19 1   
    36    18    22 2   
    37    19    20 1   
    38    20    21 2   
    39    20    23 1   
    40    21    22 1   
    41    21    50 1   
    42    23    24 ar  
    43    23    28 ar  
    44    24    25 ar  
    45    24    51 1   
    46    25    26 ar  
    47    25    29 1   
    48    26    27 ar  
    49    26    52 1   
    50    27    28 ar  
    51    27    53 1   
    52    28    54 1   
    53    29    30 ar  
    54    29    34 ar  
    55    30    31 ar  
    56    30    55 1   
    57    31    32 ar  
    58    32    33 ar  
    59    32    56 1   
    60    33    34 ar  
    61    33    57 1   
    62    34    58 1   
@<TRIPOS>SUBSTRUCTURE
     1 AAX         1 TEMP              0 ****  ****    0 ROOT
