@<TRIPOS>MOLECULE
AAY
   93    97     1     0     0
SMALL
abcg2


@<TRIPOS>ATOM
      1 O52         29.2080    85.8620    40.3030 o          1 AAY      -0.500000
      2 C51         29.5480    86.3250    39.2330 c          1 AAY       0.590100
      3 C53         28.5830    86.6800    38.1190 c3         1 AAY      -0.118700
      4 C62         27.6720    85.4820    37.8360 c3         1 AAY      -0.084100
      5 C55         27.7690    87.9310    38.4890 c3         1 AAY      -0.073400
      6 C58         28.5950    89.2130    38.5380 c3         1 AAY      -0.095100
      7 O50         30.8170    86.5790    38.8990 os         1 AAY      -0.449100
      8 C26         31.8900    86.1770    39.8050 c6         1 AAY       0.176300
      9 C28         32.5260    84.9030    39.2730 c6         1 AAY      -0.085400
     10 C31         33.1830    85.0680    37.8920 c6         1 AAY      -0.019500
     11 C46         32.2300    84.7520    36.7260 c3         1 AAY      -0.082100
     12 C33         33.7960    86.4270    37.7270 c2         1 AAY      -0.196200
     13 C35         33.6770    87.4460    38.5910 ce         1 AAY      -0.077200
     14 C24         32.8980    87.3170    39.8870 c6         1 AAY      -0.017500
     15 C36         34.3220    88.7270    38.3370 ce         1 AAY      -0.175000
     16 C38         34.2080    89.7760    39.1580 c2         1 AAY      -0.209200
     17 C40         33.3860    89.7490    40.4160 c6         1 AAY      -0.027500
     18 C42         34.3030    89.6130    41.6430 c3         1 AAY      -0.082100
     19 C22         32.2880    88.6680    40.3160 c6         1 AAY      -0.047700
     20 C19         31.4470    88.5340    41.5870 c3         1 AAY      -0.078400
     21 C16         30.8020    89.8350    42.0640 c3         1 AAY      -0.085400
     22 C2          29.6240    89.6080    43.0300 c6         1 AAY       0.128700
     23 N1          29.9960    88.6810    44.1210 n          1 AAY      -0.414800
     24 C12         29.3040    87.5770    44.4950 c          1 AAY       0.567000
     25 O13         29.6820    86.8390    45.4100 o          1 AAY      -0.572000
     26 C9          28.0160    87.2600    43.7650 c6         1 AAY      -0.160400
     27 C7          27.3680    88.4840    43.1560 c6         1 AAY       0.176300
     28 O14         26.2130    88.0470    42.4330 oh         1 AAY      -0.655000
     29 C4          28.3880    89.1480    42.2570 c6         1 AAY      -0.130400
     30 C66         31.1370    89.0910    44.9330 c3         1 AAY       0.134300
     31 C69         30.8530    90.3000    45.7940 ca         1 AAY      -0.114300
     32 C92         31.8990    91.2100    46.0730 ca         1 AAY      -0.097000
     33 C90         31.7020    92.3070    46.8710 ca         1 AAY      -0.100000
     34 C73         30.4320    92.5760    47.4480 ca         1 AAY       0.018000
     35 C74         30.1880    93.7090    48.2730 ca         1 AAY      -0.118300
     36 C85         31.2940    94.6710    48.5930 c3         1 AAY       0.215900
     37 O88         31.4930    95.5510    47.4670 oh         1 AAY      -0.664000
     38 C75         28.9090    93.9230    48.7670 ca         1 AAY       0.157100
     39 O80         28.7120    95.0380    49.5230 os         1 AAY      -0.353100
     40 C81         27.4390    95.2540    50.1280 c3         1 AAY       0.151900
     41 C76         27.8610    93.0140    48.4860 ca         1 AAY      -0.180000
     42 C78         28.0950    91.9150    47.7030 ca         1 AAY      -0.054000
     43 C72         29.3730    91.6630    47.1580 ca         1 AAY      -0.072000
     44 C70         29.6160    90.5370    46.3370 ca         1 AAY      -0.074000
     45 H53         29.1740    86.9000    37.2290 hc         1 AAY       0.072700
     46 H621        27.0590    85.2490    38.7090 hc         1 AAY       0.045700
     47 H622        27.0090    85.7150    37.0020 hc         1 AAY       0.045700
     48 H623        28.2510    84.5940    37.5770 hc         1 AAY       0.045700
     49 H551        27.2750    87.7600    39.4490 hc         1 AAY       0.051700
     50 H552        26.9760    88.0370    37.7440 hc         1 AAY       0.051700
     51 H581        29.0700    89.4060    37.5730 hc         1 AAY       0.036367
     52 H582        27.9660    90.0700    38.7840 hc         1 AAY       0.036367
     53 H583        29.3820    89.1560    39.2890 hc         1 AAY       0.036367
     54 H26         31.4480    85.9850    40.7780 h1         1 AAY       0.076700
     55 H281        31.7810    84.1060    39.2460 hc         1 AAY       0.054200
     56 H282        33.2830    84.6070    40.0040 hc         1 AAY       0.054200
     57 H31         33.9950    84.3340    37.8290 hc         1 AAY       0.049700
     58 H461        31.3880    85.4440    36.7070 hc         1 AAY       0.036700
     59 H462        32.7550    84.8250    35.7710 hc         1 AAY       0.036700
     60 H463        31.8380    83.7370    36.8200 hc         1 AAY       0.036700
     61 H33         34.3710    86.5850    36.8180 ha         1 AAY       0.172000
     62 H24         33.6030    87.0160    40.6720 hc         1 AAY       0.063700
     63 H36         34.9280    88.8010    37.4390 ha         1 AAY       0.174000
     64 H38         34.7440    90.6940    38.9360 ha         1 AAY       0.174000
     65 H40         32.8840    90.7180    40.5000 hc         1 AAY       0.049700
     66 H421        35.0730    90.3870    41.6230 hc         1 AAY       0.034700
     67 H422        33.7480    89.7200    42.5760 hc         1 AAY       0.034700
     68 H423        34.8080    88.6450    41.6540 hc         1 AAY       0.034700
     69 H22         31.6210    88.9890    39.5100 hc         1 AAY       0.058700
     70 H191        32.0560    88.1060    42.3870 hc         1 AAY       0.050200
     71 H192        30.6540    87.8090    41.4030 hc         1 AAY       0.050200
     72 H161        30.4040    90.3890    41.2100 hc         1 AAY       0.047700
     73 H162        31.5430    90.4870    42.5270 hc         1 AAY       0.047700
     74 H2          29.3890    90.5640    43.5060 h1         1 AAY       0.054700
     75 H91         27.3580    86.7660    44.4780 hc         1 AAY       0.094200
     76 H92A        28.2430    86.5430    42.9690 hc         1 AAY       0.094200
     77 H7          27.0600    89.1730    43.9520 h1         1 AAY       0.035700
     78 H14         25.8020    88.8200    42.0260 ho         1 AAY       0.440000
     79 H41         28.6660    88.4300    41.4850 hc         1 AAY       0.061200
     80 H42         27.9620    90.0200    41.7590 hc         1 AAY       0.061200
     81 H661        31.9900    89.2990    44.2890 h1         1 AAY       0.071700
     82 H662        31.4040    88.2410    45.5580 h1         1 AAY       0.071700
     83 H92         32.8750    91.0370    45.6340 ha         1 AAY       0.109000
     84 H90         32.5230    92.9890    47.0430 ha         1 AAY       0.119000
     85 H851        32.2180    94.1260    48.8030 h1         1 AAY       0.033700
     86 H852        31.0370    95.2530    49.4780 h1         1 AAY       0.033700
     87 H88         32.2110    96.1560    47.6920 ho         1 AAY       0.435000
     88 H811        27.1730    94.4310    50.7950 h1         1 AAY       0.042367
     89 H812        27.5400    96.1710    50.7050 h1         1 AAY       0.042367
     90 H813        26.6580    95.3820    49.3750 h1         1 AAY       0.042367
     91 H76         26.8720    93.1840    48.8840 ha         1 AAY       0.118000
     92 H78         27.2880    91.2250    47.4890 ha         1 AAY       0.114000
     93 H70         28.7900    89.8670    46.1300 ha         1 AAY       0.116000
@<TRIPOS>BOND
     1     1     2 2   
     2     2     3 1   
     3     2     7 1   
     4     3     4 1   
     5     3     5 1   
     6     3    45 1   
     7     4    46 1   
     8     4    47 1   
     9     4    48 1   
    10     5     6 1   
    11     5    49 1   
    12     5    50 1   
    13     6    51 1   
    14     6    52 1   
    15     6    53 1   
    16     7     8 1   
    17     8     9 1   
    18     8    14 1   
    19     8    54 1   
    20     9    10 1   
    21     9    55 1   
    22     9    56 1   
    23    10    11 1   
    24    10    12 1   
    25    10    57 1   
    26    11    58 1   
    27    11    59 1   
    28    11    60 1   
    29    12    13 2   
    30    12    61 1   
    31    13    14 1   
    32    13    15 1   
    33    14    19 1   
    34    14    62 1   
    35    15    16 2   
    36    15    63 1   
    37    16    17 1   
    38    16    64 1   
    39    17    18 1   
    40    17    19 1   
    41    17    65 1   
    42    18    66 1   
    43    18    67 1   
    44    18    68 1   
    45    19    20 1   
    46    19    69 1   
    47    20    21 1   
    48    20    70 1   
    49    20    71 1   
    50    21    22 1   
    51    21    72 1   
    52    21    73 1   
    53    22    23 1   
    54    22    29 1   
    55    22    74 1   
    56    23    24 1   
    57    23    30 1   
    58    24    25 2   
    59    24    26 1   
    60    26    27 1   
    61    26    75 1   
    62    26    76 1   
    63    27    28 1   
    64    27    29 1   
    65    27    77 1   
    66    28    78 1   
    67    29    79 1   
    68    29    80 1   
    69    30    31 1   
    70    30    81 1   
    71    30    82 1   
    72    31    32 ar  
    73    31    44 ar  
    74    32    33 ar  
    75    32    83 1   
    76    33    34 ar  
    77    33    84 1   
    78    34    35 ar  
    79    34    43 ar  
    80    35    36 1   
    81    35    38 ar  
    82    36    37 1   
    83    36    85 1   
    84    36    86 1   
    85    37    87 1   
    86    38    39 1   
    87    38    41 ar  
    88    39    40 1   
    89    40    88 1   
    90    40    89 1   
    91    40    90 1   
    92    41    42 ar  
    93    41    91 1   
    94    42    43 ar  
    95    42    92 1   
    96    43    44 ar  
    97    44    93 1   
@<TRIPOS>SUBSTRUCTURE
     1 AAY         1 TEMP              0 ****  ****    0 ROOT
