@<TRIPOS>MOLECULE
AAY
   93    97     1     0     0
SMALL
No Charge or Current Charge


@<TRIPOS>ATOM
      1 O52         29.3010    85.2030    38.7970 o          1 AAY      -0.500000
      2 C51         29.6800    86.2630    38.3170 c          1 AAY       0.590100
      3 C53         28.8800    87.0770    37.2810 c3         1 AAY      -0.118700
      4 C62         28.5320    86.2150    36.0440 c3         1 AAY      -0.084100
      5 C55         27.6230    87.7280    37.9150 c3         1 AAY      -0.073400
      6 C58         27.9460    88.7150    39.0560 c3         1 AAY      -0.095100
      7 O50         30.8500    86.8870    38.6550 os         1 AAY      -0.449100
      8 C26         31.7960    86.2690    39.5520 c6         1 AAY       0.176300
      9 C28         32.5780    85.1200    38.8600 c6         1 AAY      -0.085400
     10 C31         33.4600    85.6080    37.6780 c6         1 AAY      -0.019500
     11 C46         32.6890    85.6740    36.3310 c3         1 AAY      -0.082100
     12 C33         34.0960    86.9670    37.9500 c2         1 AAY      -0.196200
     13 C35         33.7880    87.7650    39.0000 ce         1 AAY      -0.077200
     14 C24         32.7980    87.3260    40.1080 c6         1 AAY      -0.017500
     15 C36         34.4230    89.0810    39.1690 ce         1 AAY      -0.175000
     16 C38         34.1540    89.9210    40.1900 c2         1 AAY      -0.209200
     17 C40         33.1800    89.5750    41.3020 c6         1 AAY      -0.027500
     18 C42         34.0090    89.0920    42.5270 c3         1 AAY      -0.082100
     19 C22         32.1020    88.5580    40.7940 c6         1 AAY      -0.047700
     20 C19         31.0560    88.1510    41.8950 c3         1 AAY      -0.078400
     21 C16         30.2920    89.3270    42.5680 c3         1 AAY      -0.085400
     22 C2          29.1510    88.9380    43.5680 c6         1 AAY       0.128700
     23 N1          29.5850    88.1340    44.7580 n          1 AAY      -0.414800
     24 C12         28.6870    87.2750    45.4450 c          1 AAY       0.567000
     25 O13         28.9150    86.8740    46.5780 o          1 AAY      -0.572000
     26 C9          27.3990    86.8380    44.7500 c6         1 AAY      -0.160400
     27 C7          26.8340    87.9180    43.8260 c6         1 AAY       0.176300
     28 O14         25.7030    87.4010    43.1230 oh         1 AAY      -0.655000
     29 C4          27.9250    88.3380    42.8330 c6         1 AAY      -0.130400
     30 C66         30.8270    88.5660    45.4610 c3         1 AAY       0.134300
     31 C69         30.7700    89.9960    45.9940 ca         1 AAY      -0.114300
     32 C92         31.7660    90.9250    45.6500 ca         1 AAY      -0.097000
     33 C90         31.7100    92.2430    46.1320 ca         1 AAY      -0.100000
     34 C73         30.6550    92.6630    46.9770 ca         1 AAY       0.018000
     35 C74         30.5770    93.9920    47.4820 ca         1 AAY      -0.118300
     36 C85         31.6520    95.0350    47.1510 c3         1 AAY       0.215900
     37 O88         31.4710    95.5430    45.8220 oh         1 AAY      -0.664000
     38 C75         29.4900    94.3550    48.3160 ca         1 AAY       0.157100
     39 O80         29.4210    95.6520    48.7980 os         1 AAY      -0.353100
     40 C81         28.3530    96.1110    49.6470 c3         1 AAY       0.151900
     41 C76         28.5020    93.4020    48.6450 ca         1 AAY      -0.180000
     42 C78         28.5880    92.0940    48.1520 ca         1 AAY      -0.054000
     43 C72         29.6570    91.7210    47.3210 ca         1 AAY      -0.072000
     44 C70         29.7190    90.4010    46.8360 ca         1 AAY      -0.074000
     45 H53         29.5240    87.8980    36.9440 hc         1 AAY       0.072700
     46 H621        27.8680    85.3860    36.3180 hc         1 AAY       0.045700
     47 H622        28.0300    86.8190    35.2780 hc         1 AAY       0.045700
     48 H623        29.4420    85.7930    35.6000 hc         1 AAY       0.045700
     49 H551        26.9570    86.9440    38.2970 hc         1 AAY       0.051700
     50 H552        27.0640    88.2660    37.1380 hc         1 AAY       0.051700
     51 H581        28.5890    89.5280    38.6980 hc         1 AAY       0.036367
     52 H582        27.0240    89.1570    39.4520 hc         1 AAY       0.036367
     53 H583        28.4610    88.2070    39.8790 hc         1 AAY       0.036367
     54 H26         31.2440    85.8350    40.3990 h1         1 AAY       0.076700
     55 H281        31.8930    84.3280    38.5300 hc         1 AAY       0.054200
     56 H282        33.2270    84.6480    39.6100 hc         1 AAY       0.054200
     57 H31         34.2620    84.8710    37.5260 hc         1 AAY       0.049700
     58 H461        31.9310    86.4650    36.3310 hc         1 AAY       0.036700
     59 H462        33.3730    85.8800    35.4990 hc         1 AAY       0.036700
     60 H463        32.1850    84.7250    36.1120 hc         1 AAY       0.036700
     61 H33         34.8180    87.3020    37.2040 ha         1 AAY       0.172000
     62 H24         33.3900    86.8110    40.8770 hc         1 AAY       0.063700
     63 H36         35.1390    89.3810    38.4020 ha         1 AAY       0.174000
     64 H38         34.6480    90.8920    40.2590 ha         1 AAY       0.174000
     65 H40         32.6820    90.5060    41.6070 hc         1 AAY       0.049700
     66 H421        34.7130    89.8680    42.8490 hc         1 AAY       0.034700
     67 H422        33.3740    88.8600    43.3860 hc         1 AAY       0.034700
     68 H423        34.5980    88.1970    42.2940 hc         1 AAY       0.034700
     69 H22         31.5180    89.0750    40.0190 hc         1 AAY       0.058700
     70 H191        31.5390    87.5420    42.6670 hc         1 AAY       0.050200
     71 H192        30.3030    87.5010    41.4410 hc         1 AAY       0.050200
     72 H161        29.8640    89.9520    41.7740 hc         1 AAY       0.047700
     73 H162        31.0110    89.9740    43.0800 hc         1 AAY       0.047700
     74 H2          28.7990    89.8960    43.9800 h1         1 AAY       0.054700
     75 H91         26.6730    86.4810    45.4910 hc         1 AAY       0.094200
     76 H92A        27.6750    85.9830    44.1200 hc         1 AAY       0.094200
     77 H7          26.5380    88.7890    44.4300 h1         1 AAY       0.035700
     78 H14         25.3240    88.1470    42.6090 ho         1 AAY       0.440000
     79 H41         28.2210    87.4650    42.2370 hc         1 AAY       0.061200
     80 H42         27.5240    89.0790    42.1290 hc         1 AAY       0.061200
     81 H661        31.6730    88.4660    44.7730 h1         1 AAY       0.071700
     82 H662        31.0530    87.8940    46.2970 h1         1 AAY       0.071700
     83 H92         32.5880    90.6310    45.0020 ha         1 AAY       0.109000
     84 H90         32.4960    92.9280    45.8280 ha         1 AAY       0.119000
     85 H851        32.6450    94.5810    47.2570 h1         1 AAY       0.033700
     86 H852        31.6240    95.8610    47.8740 h1         1 AAY       0.033700
     87 H88         32.1590    96.2320    45.6880 ho         1 AAY       0.435000
     88 H811        28.3210    95.5360    50.5810 h1         1 AAY       0.042367
     89 H812        28.5010    97.1670    49.9050 h1         1 AAY       0.042367
     90 H813        27.3840    96.0190    49.1410 h1         1 AAY       0.042367
     91 H76         27.6610    93.6540    49.2830 ha         1 AAY       0.118000
     92 H78         27.8200    91.3700    48.4150 ha         1 AAY       0.114000
     93 H70         28.9460    89.6880    47.1110 ha         1 AAY       0.116000
@<TRIPOS>BOND
     1     1     2 2   
     2     2     3 1   
     3     2     7 1   
     4     3     4 1   
     5     3     5 1   
     6     3    45 1   
     7     4    46 1   
     8     4    47 1   
     9     4    48 1   
    10     5     6 1   
    11     5    49 1   
    12     5    50 1   
    13     6    51 1   
    14     6    52 1   
    15     6    53 1   
    16     7     8 1   
    17     8     9 1   
    18     8    14 1   
    19     8    54 1   
    20     9    10 1   
    21     9    55 1   
    22     9    56 1   
    23    10    11 1   
    24    10    12 1   
    25    10    57 1   
    26    11    58 1   
    27    11    59 1   
    28    11    60 1   
    29    12    13 2   
    30    12    61 1   
    31    13    14 1   
    32    13    15 1   
    33    14    19 1   
    34    14    62 1   
    35    15    16 2   
    36    15    63 1   
    37    16    17 1   
    38    16    64 1   
    39    17    18 1   
    40    17    19 1   
    41    17    65 1   
    42    18    66 1   
    43    18    67 1   
    44    18    68 1   
    45    19    20 1   
    46    19    69 1   
    47    20    21 1   
    48    20    70 1   
    49    20    71 1   
    50    21    22 1   
    51    21    72 1   
    52    21    73 1   
    53    22    23 1   
    54    22    29 1   
    55    22    74 1   
    56    23    24 1   
    57    23    30 1   
    58    24    25 2   
    59    24    26 1   
    60    26    27 1   
    61    26    75 1   
    62    26    76 1   
    63    27    28 1   
    64    27    29 1   
    65    27    77 1   
    66    28    78 1   
    67    29    79 1   
    68    29    80 1   
    69    30    31 1   
    70    30    81 1   
    71    30    82 1   
    72    31    32 ar  
    73    31    44 ar  
    74    32    33 ar  
    75    32    83 1   
    76    33    34 ar  
    77    33    84 1   
    78    34    35 ar  
    79    34    43 ar  
    80    35    36 1   
    81    35    38 ar  
    82    36    37 1   
    83    36    85 1   
    84    36    86 1   
    85    37    87 1   
    86    38    39 1   
    87    38    41 ar  
    88    39    40 1   
    89    40    88 1   
    90    40    89 1   
    91    40    90 1   
    92    41    42 ar  
    93    41    91 1   
    94    42    43 ar  
    95    42    92 1   
    96    43    44 ar  
    97    44    93 1   
@<TRIPOS>SUBSTRUCTURE
     1 AAY         1 TEMP              0 ****  ****    0 ROOT
