@<TRIPOS>MOLECULE
AAZ
   52    55     1     0     0
SMALL
bcc


@<TRIPOS>ATOM
      1 O4           0.7680     0.5650     7.0210 o          1 AAZ      -0.591800
      2 S3           1.2490     0.0920     5.7220 sy         1 AAZ       1.078300
      3 O5           2.3330     0.8290     5.0720 o          1 AAZ      -0.591800
      4 C2           1.7690    -1.6140     5.9090 c3         1 AAZ      -0.182600
      5 C1           2.9440    -1.7140     6.8650 c3         1 AAZ      -0.070100
      6 C6          -0.1230     0.0050     4.6120 ca         1 AAZ      -0.277500
      7 C7          -1.3930    -0.1890     5.1210 ca         1 AAZ      -0.023000
      8 C8          -2.4590    -0.2900     4.2370 ca         1 AAZ      -0.211000
      9 C9          -2.2480    -0.1990     2.8700 ca         1 AAZ       0.142100
     10 O10         -3.2100    -0.2840     1.9440 os         1 AAZ      -0.334900
     11 C11         -4.5480    -0.5180     2.3550 c3         1 AAZ       0.129700
     12 C12         -0.9440     0.0000     2.3600 ca         1 AAZ       0.139600
     13 C31          0.1170     0.1030     3.2440 ca         1 AAZ      -0.049000
     14 N13         -0.8230     0.0810     0.9810 nu         1 AAZ      -0.736300
     15 C14          0.3090     0.2620     0.2670 cc         1 AAZ       0.752300
     16 N15          1.5270     0.4340     0.6680 nd         1 AAZ      -0.737000
     17 C16          2.2480     0.5680    -0.4990 cd         1 AAZ       0.279900
     18 C17          1.4220     0.4700    -1.5650 cc         1 AAZ       0.180900
     19 O18          0.1620     0.2690    -1.0590 os         1 AAZ      -0.372800
     20 C19          1.5940     0.5220    -3.0020 ca         1 AAZ      -0.115500
     21 C20          2.8450     0.8500    -3.5350 ca         1 AAZ      -0.104000
     22 C21          3.0250     0.8900    -4.9050 ca         1 AAZ      -0.133000
     23 C22          1.9730     0.6040    -5.7650 ca         1 AAZ      -0.108000
     24 C23          0.7200     0.2740    -5.2520 cp         1 AAZ      -0.146500
     25 C24          0.5400     0.2430    -3.8700 ca         1 AAZ      -0.070000
     26 C25         -0.4180    -0.0430    -6.1450 cp         1 AAZ       0.471800
     27 C26         -0.2190    -0.5340    -7.4350 ca         1 AAZ      -0.235300
     28 C27         -1.3210    -0.8170    -8.2240 ca         1 AAZ      -0.090000
     29 C28         -2.5900    -0.6100    -7.7070 ca         1 AAZ      -0.248300
     30 C29         -2.6900    -0.1320    -6.4090 ca         1 AAZ       0.408200
     31 N30         -1.6400     0.1430    -5.6480 nb         1 AAZ      -0.673000
     32 H21A         2.0220    -1.9780     4.9120 h1         1 AAZ       0.093200
     33 H22A         0.9020    -2.1700     6.2680 h1         1 AAZ       0.093200
     34 H11          3.2320    -2.7590     6.9600 hc         1 AAZ       0.052700
     35 H12          3.8090    -1.1640     6.4990 hc         1 AAZ       0.052700
     36 H13A         2.6870    -1.3470     7.8580 hc         1 AAZ       0.052700
     37 H7          -1.5710    -0.2600     6.1840 ha         1 AAZ       0.157000
     38 H8          -3.4540    -0.4400     4.6330 ha         1 AAZ       0.142000
     39 H111        -5.1420    -0.5640     1.4470 h1         1 AAZ       0.048367
     40 H112        -4.6390    -1.4650     2.8910 h1         1 AAZ       0.048367
     41 H113        -4.9200     0.2910     2.9860 h1         1 AAZ       0.048367
     42 H31          1.1160     0.2650     2.8680 ha         1 AAZ       0.200000
     43 H13         -1.6730    -0.0240     0.4470 hn         1 AAZ       0.475800
     44 H16          3.3150     0.7180    -0.4850 h4         1 AAZ       0.050100
     45 H20          3.6760     1.0820    -2.8810 ha         1 AAZ       0.135000
     46 H21          3.9920     1.1580    -5.3100 ha         1 AAZ       0.135000
     47 H22          2.1350     0.6640    -6.8330 ha         1 AAZ       0.133000
     48 H24         -0.4350    -0.0160    -3.4830 ha         1 AAZ       0.161000
     49 H26          0.7780    -0.7140    -7.8140 ha         1 AAZ       0.143000
     50 H27         -1.1870    -1.2020    -9.2270 ha         1 AAZ       0.137000
     51 H28         -3.4790    -0.8160    -8.2860 ha         1 AAZ       0.143000
     52 H29         -3.6640     0.0370    -5.9630 h4         1 AAZ       0.019100
@<TRIPOS>BOND
     1     1     2 2   
     2     2     3 2   
     3     2     4 1   
     4     2     6 1   
     5     4     5 1   
     6     4    32 1   
     7     4    33 1   
     8     5    34 1   
     9     5    35 1   
    10     5    36 1   
    11     6     7 ar  
    12     6    13 ar  
    13     7     8 ar  
    14     7    37 1   
    15     8     9 ar  
    16     8    38 1   
    17     9    10 1   
    18     9    12 ar  
    19    10    11 1   
    20    11    39 1   
    21    11    40 1   
    22    11    41 1   
    23    12    13 ar  
    24    12    14 1   
    25    13    42 1   
    26    14    15 1   
    27    14    43 1   
    28    15    16 2   
    29    15    19 1   
    30    16    17 1   
    31    17    18 2   
    32    17    44 1   
    33    18    19 1   
    34    18    20 1   
    35    20    21 ar  
    36    20    25 ar  
    37    21    22 ar  
    38    21    45 1   
    39    22    23 ar  
    40    22    46 1   
    41    23    24 ar  
    42    23    47 1   
    43    24    25 ar  
    44    24    26 1   
    45    25    48 1   
    46    26    27 ar  
    47    26    31 ar  
    48    27    28 ar  
    49    27    49 1   
    50    28    29 ar  
    51    28    50 1   
    52    29    30 ar  
    53    29    51 1   
    54    30    31 ar  
    55    30    52 1   
@<TRIPOS>SUBSTRUCTURE
     1 AAZ         1 TEMP              0 ****  ****    0 ROOT
