@<TRIPOS>MOLECULE
AAZ
   52    55     1     0     0
SMALL
No Charge or Current Charge


@<TRIPOS>ATOM
      1 O4           1.1260     0.5190     7.1050 o          1 AAZ      -0.521000
      2 S3           1.4940    -0.1290     5.8390 sy         1 AAZ       1.047500
      3 O5           2.6860     0.2870     5.0890 o          1 AAZ      -0.521000
      4 C2           1.6840    -1.8950     6.1890 c3         1 AAZ      -0.293400
      5 C1           2.8650    -2.2080     7.1390 c3         1 AAZ      -0.070100
      6 C6           0.0700    -0.0880     4.7320 ca         1 AAZ      -0.277500
      7 C7          -1.2310     0.0060     5.2590 ca         1 AAZ      -0.005000
      8 C8          -2.3400     0.0160     4.3970 ca         1 AAZ      -0.193000
      9 C9          -2.1580    -0.0650     2.9970 ca         1 AAZ       0.142100
     10 O10         -3.2370    -0.0680     2.1220 os         1 AAZ      -0.358100
     11 C11         -4.6010     0.0160     2.5750 c3         1 AAZ       0.152900
     12 C12         -0.8470    -0.1480     2.4560 ca         1 AAZ       0.278000
     13 C31          0.2560    -0.1700     3.3340 ca         1 AAZ      -0.031000
     14 N13         -0.6820    -0.2430     1.0620 nu         1 AAZ      -0.929900
     15 C14          0.2600     0.1960     0.2000 cc         1 AAZ       0.707900
     16 N15          1.3760     0.7850     0.5650 nd         1 AAZ      -0.737000
     17 C16          1.9850     1.0810    -0.6410 cd         1 AAZ       0.279900
     18 C17          1.1610     0.6430    -1.6470 cc         1 AAZ       0.136500
     19 O18          0.0440     0.0770    -1.1320 os         1 AAZ      -0.284000
     20 C19          1.4050     0.7540    -3.0920 ca         1 AAZ      -0.115500
     21 C20          2.5850     1.3420    -3.5920 ca         1 AAZ      -0.086000
     22 C21          2.7960     1.4380    -4.9750 ca         1 AAZ      -0.115000
     23 C22          1.8390     0.9470    -5.8760 ca         1 AAZ      -0.090000
     24 C23          0.6400     0.3430    -5.4140 cp         1 AAZ      -0.146500
     25 C24          0.4480     0.2640    -4.0070 ca         1 AAZ      -0.052000
     26 C25         -0.3930    -0.1880    -6.3760 cp         1 AAZ       0.406500
     27 C26         -0.0690    -0.5790    -7.7020 ca         1 AAZ      -0.152000
     28 C27         -1.0700    -1.0660    -8.5570 ca         1 AAZ      -0.072000
     29 C28         -2.3780    -1.1530    -8.0580 ca         1 AAZ      -0.165000
     30 C29         -2.6290    -0.7580    -6.7340 ca         1 AAZ       0.342900
     31 N30         -1.6620    -0.2910    -5.9120 nb         1 AAZ      -0.673000
     32 H21A         1.8280    -2.3970     5.2260 h1         1 AAZ       0.093200
     33 H22A         0.7410    -2.2350     6.6300 h1         1 AAZ       0.093200
     34 H11          2.9350    -3.2880     7.3170 hc         1 AAZ       0.052700
     35 H12          3.8170    -1.8730     6.7070 hc         1 AAZ       0.052700
     36 H13A         2.7320    -1.7120     8.1090 hc         1 AAZ       0.052700
     37 H7          -1.3910     0.0650     6.3360 ha         1 AAZ       0.139000
     38 H8          -3.3310     0.0830     4.8350 ha         1 AAZ       0.124000
     39 H111        -5.2870    -0.0020     1.7190 h1         1 AAZ       0.048367
     40 H112        -4.8490    -0.8310     3.2260 h1         1 AAZ       0.048367
     41 H113        -4.7720     0.9490     3.1270 h1         1 AAZ       0.048367
     42 H31          1.2590    -0.2640     2.9260 ha         1 AAZ       0.182000
     43 H13         -1.5480    -0.4360     0.5650 hn         1 AAZ       0.531000
     44 H16          2.9460     1.5770    -0.7020 h4         1 AAZ       0.050100
     45 H20          3.3460     1.7310    -2.9200 ha         1 AAZ       0.117000
     46 H21          3.7070     1.8990    -5.3520 ha         1 AAZ       0.117000
     47 H22          2.0300     1.0550    -6.9400 ha         1 AAZ       0.115000
     48 H24         -0.4600    -0.1960    -3.6210 ha         1 AAZ       0.143000
     49 H26          0.9530    -0.5190    -8.0610 ha         1 AAZ       0.125000
     50 H27         -0.8380    -1.3710    -9.5760 ha         1 AAZ       0.119000
     51 H28         -3.1880    -1.5240    -8.6790 ha         1 AAZ       0.125000
     52 H29         -3.6340    -0.8190    -6.3170 h4         1 AAZ       0.019100
@<TRIPOS>BOND
     1     1     2 2   
     2     2     3 2   
     3     2     4 1   
     4     2     6 1   
     5     4     5 1   
     6     4    32 1   
     7     4    33 1   
     8     5    34 1   
     9     5    35 1   
    10     5    36 1   
    11     6     7 ar  
    12     6    13 ar  
    13     7     8 ar  
    14     7    37 1   
    15     8     9 ar  
    16     8    38 1   
    17     9    10 1   
    18     9    12 ar  
    19    10    11 1   
    20    11    39 1   
    21    11    40 1   
    22    11    41 1   
    23    12    13 ar  
    24    12    14 1   
    25    13    42 1   
    26    14    15 1   
    27    14    43 1   
    28    15    16 2   
    29    15    19 1   
    30    16    17 1   
    31    17    18 2   
    32    17    44 1   
    33    18    19 1   
    34    18    20 1   
    35    20    21 ar  
    36    20    25 ar  
    37    21    22 ar  
    38    21    45 1   
    39    22    23 ar  
    40    22    46 1   
    41    23    24 ar  
    42    23    47 1   
    43    24    25 ar  
    44    24    26 1   
    45    25    48 1   
    46    26    27 ar  
    47    26    31 ar  
    48    27    28 ar  
    49    27    49 1   
    50    28    29 ar  
    51    28    50 1   
    52    29    30 ar  
    53    29    51 1   
    54    30    31 ar  
    55    30    52 1   
@<TRIPOS>SUBSTRUCTURE
     1 AAZ         1 TEMP              0 ****  ****    0 ROOT
