@<TRIPOS>MOLECULE
AB0
   47    49     1     0     0
SMALL
bcc


@<TRIPOS>ATOM
      1 C22         10.0880    -5.3820     4.9630 c3         1 AB0       0.122700
      2 O21          9.6150    -4.5650     3.9140 os         1 AB0      -0.436600
      3 C20          8.8480    -5.2370     2.9690 c3         1 AB0       0.328200
      4 O17          7.5940    -5.6240     3.4400 os         1 AB0      -0.417600
      5 C14          6.6360    -4.5850     3.5330 c6         1 AB0       0.100100
      6 C15          5.9110    -4.4100     2.1990 c6         1 AB0      -0.100400
      7 C10          4.7690    -3.4270     2.3680 c6         1 AB0       0.107100
      8 O11          4.0440    -3.3270     1.1670 os         1 AB0      -0.414600
      9 C05          3.0100    -2.3610     1.2200 c6         1 AB0       0.133100
     10 C06          2.3920    -2.3370    -0.1720 c3         1 AB0      -0.047200
     11 C07          1.3590    -1.2750    -0.4210 c2         1 AB0      -0.147200
     12 C01          0.3000    -1.0110     0.3380 c2         1 AB0      -0.206200
     13 C02         -0.0250    -1.7030     1.6310 c3         1 AB0       0.175600
     14 O03          1.0510    -1.7400     2.5440 os         1 AB0      -0.411600
     15 C04          2.0190    -2.7360     2.3300 c6         1 AB0       0.070100
     16 C08          2.7250    -2.9260     3.6760 c6         1 AB0       0.164100
     17 O16          1.8430    -3.4140     4.6520 oh         1 AB0      -0.553800
     18 C09          3.8700    -3.9010     3.5050 c6         1 AB0       0.123100
     19 O12          4.6110    -3.9800     4.6920 os         1 AB0      -0.357600
     20 C13          5.6490    -4.9470     4.6490 c6         1 AB0       0.168100
     21 C18          6.2870    -4.9720     6.0200 c3         1 AB0      -0.203400
     22 C19          5.3200    -5.4030     7.1380 c          1 AB0       0.938600
     23 O23          5.3670    -4.7580     8.2050 o          1 AB0      -0.840800
     24 O24          4.5980    -6.3910     6.9010 o          1 AB0      -0.840800
     25 H181         7.1140    -5.6870     6.0020 hc         1 AB0       0.031700
     26 H182         6.7250    -3.9940     6.2410 hc         1 AB0       0.031700
     27 H13          5.2210    -5.9360     4.4270 h1         1 AB0       0.067700
     28 H09          3.4620    -4.8920     3.2370 h1         1 AB0       0.057700
     29 H08          3.1470    -1.9520     3.9760 h1         1 AB0       0.047700
     30 H16          1.1130    -2.7900     4.7300 ho         1 AB0       0.401000
     31 H04          1.5360    -3.6880     2.0530 h1         1 AB0       0.053700
     32 H021        -0.8330    -1.1710     2.1350 h1         1 AB0       0.046700
     33 H022        -0.3900    -2.7210     1.4340 h1         1 AB0       0.046700
     34 H01         -0.3930    -0.2440     0.0110 ha         1 AB0       0.118000
     35 H07          1.4820    -0.7000    -1.3320 ha         1 AB0       0.113000
     36 H061         1.9540    -3.3220    -0.3760 hc         1 AB0       0.056700
     37 H062         3.2030    -2.2130    -0.8910 hc         1 AB0       0.056700
     38 H05          3.4330    -1.3710     1.4490 h1         1 AB0       0.047700
     39 H10          5.1780    -2.4400     2.6420 h1         1 AB0       0.041700
     40 H151         5.5140    -5.3780     1.8760 hc         1 AB0       0.048200
     41 H152         6.6030    -4.0600     1.4280 hc         1 AB0       0.048200
     42 H14          7.1190    -3.6370     3.8090 h1         1 AB0       0.053700
     43 H201         9.3440    -6.1600     2.6460 h2         1 AB0       0.040700
     44 H202         8.7650    -4.5590     2.1130 h2         1 AB0       0.040700
     45 H221         9.2840    -5.7530     5.6030 h1         1 AB0       0.033033
     46 H222        10.7590    -4.7790     5.5740 h1         1 AB0       0.033033
     47 H223        10.6480    -6.2440     4.5820 h1         1 AB0       0.033033
@<TRIPOS>BOND
     1     1     2 1   
     2     1    45 1   
     3     1    46 1   
     4     1    47 1   
     5     2     3 1   
     6     3     4 1   
     7     3    43 1   
     8     3    44 1   
     9     4     5 1   
    10     5     6 1   
    11     5    20 1   
    12     5    42 1   
    13     6     7 1   
    14     6    40 1   
    15     6    41 1   
    16     7     8 1   
    17     7    18 1   
    18     7    39 1   
    19     8     9 1   
    20     9    10 1   
    21     9    15 1   
    22     9    38 1   
    23    10    11 1   
    24    10    36 1   
    25    10    37 1   
    26    11    12 2   
    27    11    35 1   
    28    12    13 1   
    29    12    34 1   
    30    13    14 1   
    31    13    32 1   
    32    13    33 1   
    33    14    15 1   
    34    15    16 1   
    35    15    31 1   
    36    16    17 1   
    37    16    18 1   
    38    16    29 1   
    39    17    30 1   
    40    18    19 1   
    41    18    28 1   
    42    19    20 1   
    43    20    21 1   
    44    20    27 1   
    45    21    22 1   
    46    21    25 1   
    47    21    26 1   
    48    22    23 1   
    49    22    24 1   
@<TRIPOS>SUBSTRUCTURE
     1 AB0         1 TEMP              0 ****  ****    0 ROOT
