@<TRIPOS>MOLECULE
AB0
   47    49     1     0     0
SMALL
No Charge or Current Charge


@<TRIPOS>ATOM
      1 C22         10.1850    -4.8690     4.6130 c3         1 AB0       0.145900
      2 O21          9.5700    -4.5350     3.3550 os         1 AB0      -0.483000
      3 C20          8.7920    -5.5900     2.7620 c3         1 AB0       0.374600
      4 O17          7.6370    -5.8030     3.5960 os         1 AB0      -0.464000
      5 C14          6.6600    -4.7360     3.6960 c6         1 AB0       0.123300
      6 C15          5.9430    -4.5090     2.3330 c6         1 AB0      -0.100400
      7 C10          4.8020    -3.4770     2.4800 c6         1 AB0       0.130300
      8 O11          4.0690    -3.3520     1.2420 os         1 AB0      -0.461000
      9 C05          3.0230    -2.3500     1.2680 c6         1 AB0       0.156300
     10 C06          2.4480    -2.2840    -0.1710 c3         1 AB0      -0.047200
     11 C07          1.5290    -1.1060    -0.3990 c2         1 AB0      -0.197200
     12 C01          0.4270    -0.8500     0.3210 c2         1 AB0      -0.256200
     13 C02         -0.1050    -1.6950     1.4560 c3         1 AB0       0.198800
     14 O03          0.8810    -1.7580     2.5040 os         1 AB0      -0.458000
     15 C04          1.9690    -2.7140     2.3680 c6         1 AB0       0.093300
     16 C08          2.6950    -2.8560     3.7360 c6         1 AB0       0.187300
     17 O16          1.7430    -3.1780     4.7670 oh         1 AB0      -0.676000
     18 C09          3.8440    -3.9030     3.6270 c6         1 AB0       0.146300
     19 O12          4.5920    -4.0360     4.8600 os         1 AB0      -0.404000
     20 C13          5.6130    -5.0600     4.8170 c6         1 AB0       0.191300
     21 C18          6.2520    -5.1420     6.2310 c3         1 AB0      -0.203400
     22 C19          5.2420    -5.6690     7.2540 c          1 AB0       0.728000
     23 O23          4.6220    -4.8650     7.9340 o          1 AB0      -0.735500
     24 O24          5.1020    -6.8790     7.3470 o          1 AB0      -0.735500
     25 H181         7.0720    -5.8640     6.1450 hc         1 AB0       0.031700
     26 H182         6.5910    -4.1350     6.5010 hc         1 AB0       0.031700
     27 H13          5.1380    -6.0270     4.5900 h1         1 AB0       0.067700
     28 H09          3.4020    -4.8800     3.3800 h1         1 AB0       0.057700
     29 H08          3.1560    -1.8840     3.9670 h1         1 AB0       0.047700
     30 H16          0.9500    -2.6340     4.5510 ho         1 AB0       0.500000
     31 H04          1.5320    -3.6910     2.1130 h1         1 AB0       0.053700
     32 H021        -1.0260    -1.2360     1.8400 h1         1 AB0       0.046700
     33 H022        -0.3650    -2.7010     1.0970 h1         1 AB0       0.046700
     34 H01         -0.1810     0.0290     0.1000 ha         1 AB0       0.168000
     35 H07          1.8310    -0.4380    -1.2080 ha         1 AB0       0.163000
     36 H061         1.9200    -3.2170    -0.4030 hc         1 AB0       0.056700
     37 H062         3.2790    -2.2260    -0.8850 hc         1 AB0       0.056700
     38 H05          3.4790    -1.3760     1.5020 h1         1 AB0       0.047700
     39 H10          5.2430    -2.4990     2.7240 h1         1 AB0       0.041700
     40 H151         5.5380    -5.4610     1.9640 hc         1 AB0       0.048200
     41 H152         6.6540    -4.1460     1.5800 hc         1 AB0       0.048200
     42 H14          7.1790    -3.8090     3.9820 h1         1 AB0       0.053700
     43 H201         9.3860    -6.5100     2.6940 h2         1 AB0       0.040700
     44 H202         8.4940    -5.3210     1.7420 h2         1 AB0       0.040700
     45 H221         9.4290    -5.0960     5.3750 h1         1 AB0       0.033033
     46 H222        10.7880    -4.0270     4.9760 h1         1 AB0       0.033033
     47 H223        10.8450    -5.7390     4.5070 h1         1 AB0       0.033033
@<TRIPOS>BOND
     1     1     2 1   
     2     1    45 1   
     3     1    46 1   
     4     1    47 1   
     5     2     3 1   
     6     3     4 1   
     7     3    43 1   
     8     3    44 1   
     9     4     5 1   
    10     5     6 1   
    11     5    20 1   
    12     5    42 1   
    13     6     7 1   
    14     6    40 1   
    15     6    41 1   
    16     7     8 1   
    17     7    18 1   
    18     7    39 1   
    19     8     9 1   
    20     9    10 1   
    21     9    15 1   
    22     9    38 1   
    23    10    11 1   
    24    10    36 1   
    25    10    37 1   
    26    11    12 2   
    27    11    35 1   
    28    12    13 1   
    29    12    34 1   
    30    13    14 1   
    31    13    32 1   
    32    13    33 1   
    33    14    15 1   
    34    15    16 1   
    35    15    31 1   
    36    16    17 1   
    37    16    18 1   
    38    16    29 1   
    39    17    30 1   
    40    18    19 1   
    41    18    28 1   
    42    19    20 1   
    43    20    21 1   
    44    20    27 1   
    45    21    22 1   
    46    21    25 1   
    47    21    26 1   
    48    22    23 1   
    49    22    24 1   
@<TRIPOS>SUBSTRUCTURE
     1 AB0         1 TEMP              0 ****  ****    0 ROOT
