@<TRIPOS>MOLECULE
AB1
   94    97     1     0     0
SMALL
No Charge or Current Charge


@<TRIPOS>ATOM
      1 C1          -8.6330     1.0830    -0.9240 c6         1 AB1       0.120000
      2 C2          -6.8310    -0.6680    -1.0810 c6         1 AB1       0.093000
      3 N1          -5.8510     0.4160    -1.3350 n          1 AB1      -0.393800
      4 C3          -6.2340     1.7810    -1.3400 c          1 AB1       0.628000
      5 N2          -7.5570     2.0620    -1.1020 ns         1 AB1      -0.530900
      6 C4           3.5860     3.2900     1.0530 ca         1 AB1      -0.080300
      7 C5           4.3830     3.5980    -0.0680 ca         1 AB1      -0.107000
      8 C6           5.7730     3.7560     0.0700 ca         1 AB1      -0.108000
      9 C7           6.3760     3.6080     1.3310 ca         1 AB1      -0.111000
     10 C8           5.5870     3.3030     2.4530 ca         1 AB1      -0.108000
     11 C9           4.1970     3.1450     2.3140 ca         1 AB1      -0.107000
     12 O1          -5.4590     2.6960    -1.5590 o          1 AB1      -0.593000
     13 C10         -4.4070     0.0130    -1.4070 c3         1 AB1       0.054700
     14 C11         -3.5690     0.4520    -0.1570 c          1 AB1       0.581100
     15 N3          -2.4800    -0.3520     0.1200 ns         1 AB1      -0.504900
     16 C12         -1.7640    -0.3760     1.4000 c3         1 AB1       0.113700
     17 C13         -3.7580     0.3240    -2.8030 c3         1 AB1      -0.050700
     18 C14         -2.3810    -0.3560    -3.0110 c3         1 AB1      -0.087100
     19 C15         -4.6960    -0.0470    -3.9830 c3         1 AB1      -0.087100
     20 O2          -3.8850     1.3700     0.5910 o          1 AB1      -0.579100
     21 C16         -5.5160    -3.2520     1.3910 ca         1 AB1      -0.110500
     22 C17         -6.3410    -2.5250     2.2650 ca         1 AB1      -0.115000
     23 C18         -5.7830    -1.5420     3.1000 ca         1 AB1      -0.110500
     24 C19         -4.4010    -1.2880     3.0620 ca         1 AB1      -0.105000
     25 C20         -3.5680    -2.0140     2.1900 ca         1 AB1      -0.076300
     26 C21         -4.1340    -2.9980     1.3540 ca         1 AB1      -0.105000
     27 C22         -2.0720    -1.7100     2.1250 c3         1 AB1      -0.053100
     28 C23         -0.2420    -0.1340     1.2310 c3         1 AB1      -0.120400
     29 C24          0.1610     1.3170     0.8450 c3         1 AB1       0.166300
     30 C25          1.6830     1.5840     1.0580 c3         1 AB1       0.077700
     31 N4           2.5370     0.7460     0.1960 ns         1 AB1      -0.512900
     32 C26          3.3750    -0.2530     0.6520 c          1 AB1       0.596100
     33 C27          4.3710    -0.7740    -0.4090 c3         1 AB1       0.078600
     34 O3           5.3870    -1.6290     0.1590 os         1 AB1      -0.336100
     35 C28          6.4670    -1.9910    -0.6120 ca         1 AB1       0.086100
     36 O4          -0.1850     1.5700    -0.5240 oh         1 AB1      -0.641000
     37 C29          2.0820     3.0730     0.8980 c3         1 AB1      -0.048100
     38 O5           3.3370    -0.6560     1.8090 o          1 AB1      -0.569100
     39 C30          7.5370    -1.0840    -0.8100 ca         1 AB1      -0.078300
     40 C31          8.6280    -1.4750    -1.6100 ca         1 AB1      -0.110500
     41 C32          8.6590    -2.7500    -2.1960 ca         1 AB1      -0.106000
     42 C33          7.6030    -3.6500    -1.9860 ca         1 AB1      -0.110500
     43 C34          6.5010    -3.2800    -1.1910 ca         1 AB1      -0.078300
     44 C35          5.3580    -4.2640    -0.9700 c3         1 AB1      -0.046800
     45 C36          7.5430     0.3020    -0.1700 c3         1 AB1      -0.046800
     46 C37         -8.2470    -0.2740    -1.5260 c6         1 AB1      -0.102400
     47 H2          -9.5510     1.4620    -1.3940 h1         1 AB1       0.038200
     48 H3          -8.8200     0.9720     0.1540 h1         1 AB1       0.038200
     49 H4          -6.5270    -1.5830    -1.6090 h1         1 AB1       0.044700
     50 H5          -6.8350    -0.8890    -0.0040 h1         1 AB1       0.044700
     51 H8          -7.7980     3.0450    -1.1070 hn         1 AB1       0.327500
     52 H30          3.9280     3.7060    -1.0500 ha         1 AB1       0.108500
     53 H31          6.3820     3.9900    -0.8000 ha         1 AB1       0.113000
     54 H32          7.4520     3.7280     1.4370 ha         1 AB1       0.113000
     55 H33          6.0530     3.1870     3.4290 ha         1 AB1       0.113000
     56 H34          3.5960     2.9020     3.1880 ha         1 AB1       0.108500
     57 H9          -4.4030    -1.0820    -1.3400 h1         1 AB1       0.045700
     58 H15         -2.2910    -1.0960    -0.5380 hn         1 AB1       0.303500
     59 H16         -2.1550     0.4270     2.0400 h1         1 AB1       0.086700
     60 H10         -3.5870     1.4060    -2.8580 hc         1 AB1       0.095700
     61 H11         -2.0130    -0.1840    -4.0300 hc         1 AB1       0.033033
     62 H12         -1.6280     0.0530    -2.3300 hc         1 AB1       0.033033
     63 H47         -2.4490    -1.4390    -2.8530 hc         1 AB1       0.033033
     64 H13         -5.6210     0.5400    -3.9610 hc         1 AB1       0.033033
     65 H14         -4.2090     0.1530    -4.9460 hc         1 AB1       0.033033
     66 H48         -4.9610    -1.1110    -3.9500 hc         1 AB1       0.033033
     67 H20         -5.9470    -4.0100     0.7410 ha         1 AB1       0.113000
     68 H21         -7.4110    -2.7200     2.2930 ha         1 AB1       0.112000
     69 H22         -6.4220    -0.9750     3.7740 ha         1 AB1       0.113000
     70 H23         -3.9790    -0.5200     3.7070 ha         1 AB1       0.111500
     71 H19         -3.5050    -3.5620     0.6690 ha         1 AB1       0.111500
     72 H17         -1.5450    -2.5250     1.6120 hc         1 AB1       0.055200
     73 H18         -1.6570    -1.6710     3.1390 hc         1 AB1       0.055200
     74 H24          0.2380    -0.3660     2.1900 hc         1 AB1       0.056700
     75 H25          0.1690    -0.8480     0.5060 hc         1 AB1       0.056700
     76 H26         -0.3880     2.0050     1.5040 h1         1 AB1       0.084700
     77 H27          1.9000     1.3270     2.1040 h1         1 AB1       0.086700
     78 H35          2.6640     1.0350    -0.7670 hn         1 AB1       0.304500
     79 H36          3.8000    -1.3090    -1.1780 h1         1 AB1       0.046700
     80 H37          4.8260     0.1040    -0.8840 h1         1 AB1       0.046700
     81 H1           0.2550     0.8750    -1.0550 ho         1 AB1       0.433000
     82 H28          1.7490     3.4360    -0.0820 hc         1 AB1       0.064200
     83 H29          1.5400     3.6710     1.6410 hc         1 AB1       0.064200
     84 H41          9.4560    -0.7900    -1.7760 ha         1 AB1       0.113500
     85 H42          9.5070    -3.0430    -2.8120 ha         1 AB1       0.114000
     86 H43          7.6420    -4.6370    -2.4430 ha         1 AB1       0.113500
     87 H44          5.1690    -4.4140     0.1000 hc         1 AB1       0.047200
     88 H45          4.4310    -3.8970    -1.4260 hc         1 AB1       0.047200
     89 H46          5.5750    -5.2460    -1.4060 hc         1 AB1       0.047200
     90 H38          7.0540     0.3010     0.8110 hc         1 AB1       0.047200
     91 H39          8.5660     0.6680    -0.0170 hc         1 AB1       0.047200
     92 H40          7.0240     1.0300    -0.8040 hc         1 AB1       0.047200
     93 H6          -8.2770    -0.2090    -2.6220 hc         1 AB1       0.057700
     94 H7          -8.9720    -1.0450    -1.2310 hc         1 AB1       0.057700
@<TRIPOS>BOND
     1     1     5 1   
     2     1    46 1   
     3     1    47 1   
     4     1    48 1   
     5     2     3 1   
     6     2    46 1   
     7     2    49 1   
     8     2    50 1   
     9     3     4 1   
    10     3    13 1   
    11     4     5 1   
    12     4    12 2   
    13     5    51 1   
    14     6     7 ar  
    15     6    11 ar  
    16     6    37 1   
    17     7     8 ar  
    18     7    52 1   
    19     8     9 ar  
    20     8    53 1   
    21     9    10 ar  
    22     9    54 1   
    23    10    11 ar  
    24    10    55 1   
    25    11    56 1   
    26    13    14 1   
    27    13    17 1   
    28    13    57 1   
    29    14    15 1   
    30    14    20 2   
    31    15    16 1   
    32    15    58 1   
    33    16    27 1   
    34    16    28 1   
    35    16    59 1   
    36    17    18 1   
    37    17    19 1   
    38    17    60 1   
    39    18    61 1   
    40    18    62 1   
    41    18    63 1   
    42    19    64 1   
    43    19    65 1   
    44    19    66 1   
    45    21    22 ar  
    46    21    26 ar  
    47    21    67 1   
    48    22    23 ar  
    49    22    68 1   
    50    23    24 ar  
    51    23    69 1   
    52    24    25 ar  
    53    24    70 1   
    54    25    26 ar  
    55    25    27 1   
    56    26    71 1   
    57    27    72 1   
    58    27    73 1   
    59    28    29 1   
    60    28    74 1   
    61    28    75 1   
    62    29    30 1   
    63    29    36 1   
    64    29    76 1   
    65    30    31 1   
    66    30    37 1   
    67    30    77 1   
    68    31    32 1   
    69    31    78 1   
    70    32    33 1   
    71    32    38 2   
    72    33    34 1   
    73    33    79 1   
    74    33    80 1   
    75    34    35 1   
    76    35    39 ar  
    77    35    43 ar  
    78    36    81 1   
    79    37    82 1   
    80    37    83 1   
    81    39    40 ar  
    82    39    45 1   
    83    40    41 ar  
    84    40    84 1   
    85    41    42 ar  
    86    41    85 1   
    87    42    43 ar  
    88    42    86 1   
    89    43    44 1   
    90    44    87 1   
    91    44    88 1   
    92    44    89 1   
    93    45    90 1   
    94    45    91 1   
    95    45    92 1   
    96    46    93 1   
    97    46    94 1   
@<TRIPOS>SUBSTRUCTURE
     1 AB1         1 TEMP              0 ****  ****    0 ROOT
