@<TRIPOS>MOLECULE
AB1
   94    97     1     0     0
SMALL
abcg2


@<TRIPOS>ATOM
      1 C1          -8.1300     1.3910    -0.3350 c6         1 AB1       0.120000
      2 C2          -6.4920    -0.4270    -0.5900 c6         1 AB1       0.093000
      3 N1          -5.6700     0.4350    -1.4300 n          1 AB1      -0.393800
      4 C3          -5.9610     1.7710    -1.5430 c          1 AB1       0.628000
      5 N2          -7.1650     2.1790    -1.0670 ns         1 AB1      -0.530900
      6 C4           3.3870     3.1480     0.5970 ca         1 AB1      -0.080300
      7 C5           4.2760     3.0610    -0.4720 ca         1 AB1      -0.107000
      8 C6           5.6400     3.2460    -0.2830 ca         1 AB1      -0.108000
      9 C7           6.1360     3.5230     0.9830 ca         1 AB1      -0.111000
     10 C8           5.2590     3.6140     2.0570 ca         1 AB1      -0.108000
     11 C9           3.8980     3.4260     1.8620 ca         1 AB1      -0.107000
     12 O1          -5.2170     2.5720    -2.1030 o          1 AB1      -0.593000
     13 C10         -4.3120    -0.0380    -1.6060 c3         1 AB1       0.054700
     14 C11         -3.4900     0.3480    -0.3620 c          1 AB1       0.581100
     15 N3          -2.5390    -0.5350    -0.0130 ns         1 AB1      -0.504900
     16 C12         -1.8030    -0.4930     1.2320 c3         1 AB1       0.113700
     17 C13         -3.6370     0.2940    -2.9570 c3         1 AB1      -0.050700
     18 C14         -2.4060    -0.5840    -3.1790 c3         1 AB1      -0.087100
     19 C15         -4.6160     0.0740    -4.1060 c3         1 AB1      -0.087100
     20 O2          -3.7350     1.3570     0.2770 o          1 AB1      -0.579100
     21 C16         -5.5320    -3.2660     1.5780 ca         1 AB1      -0.110500
     22 C17         -6.2650    -2.5260     2.4950 ca         1 AB1      -0.115000
     23 C18         -5.6250    -1.5590     3.2610 ca         1 AB1      -0.110500
     24 C19         -4.2640    -1.3380     3.1090 ca         1 AB1      -0.105000
     25 C20         -3.5170    -2.0750     2.1920 ca         1 AB1      -0.076300
     26 C21         -4.1700    -3.0390     1.4290 ca         1 AB1      -0.105000
     27 C22         -2.0510    -1.7960     2.0070 c3         1 AB1      -0.053100
     28 C23         -0.3080    -0.2490     1.0330 c3         1 AB1      -0.120400
     29 C24          0.0530     1.1680     0.6010 c3         1 AB1       0.166300
     30 C25          1.5540     1.4410     0.7600 c3         1 AB1       0.077700
     31 N4           2.3530     0.5260    -0.0280 ns         1 AB1      -0.512900
     32 C26          3.3160    -0.2620     0.4890 c          1 AB1       0.596100
     33 C27          4.2380    -0.8480    -0.5690 c3         1 AB1       0.078600
     34 O3           5.0240    -1.8600     0.0050 os         1 AB1      -0.336100
     35 C28          6.2950    -1.9750    -0.4910 ca         1 AB1       0.086100
     36 O4          -0.3960     1.4810    -0.7010 oh         1 AB1      -0.641000
     37 C29          1.9190     2.8890     0.4050 c3         1 AB1      -0.048100
     38 O5           3.4640    -0.4780     1.6760 o          1 AB1      -0.569100
     39 C30          7.3140    -1.2110     0.0810 ca         1 AB1      -0.078300
     40 C31          8.6050    -1.3710    -0.4160 ca         1 AB1      -0.110500
     41 C32          8.8700    -2.2600    -1.4460 ca         1 AB1      -0.106000
     42 C33          7.8400    -3.0120    -1.9920 ca         1 AB1      -0.110500
     43 C34          6.5350    -2.8780    -1.5270 ca         1 AB1      -0.078300
     44 C35          5.4150    -3.6840    -2.1190 c3         1 AB1      -0.046800
     45 C36          7.0320    -0.2550     1.2020 c3         1 AB1      -0.046800
     46 C37         -7.9550    -0.0640    -0.7070 c6         1 AB1      -0.102400
     47 H2          -9.1310     1.7420    -0.5860 h1         1 AB1       0.038200
     48 H3          -8.0060     1.5180     0.7460 h1         1 AB1       0.038200
     49 H4          -6.3380    -1.4580    -0.9110 h1         1 AB1       0.044700
     50 H5          -6.1760    -0.3760     0.4600 h1         1 AB1       0.044700
     51 H8          -7.3410     3.1650    -1.1680 hn         1 AB1       0.327500
     52 H30          3.9000     2.8510    -1.4670 ha         1 AB1       0.108500
     53 H31          6.3150     3.1750    -1.1260 ha         1 AB1       0.113000
     54 H32          7.1980     3.6670     1.1330 ha         1 AB1       0.113000
     55 H33          5.6360     3.8340     3.0480 ha         1 AB1       0.113000
     56 H34          3.2220     3.4970     2.7070 ha         1 AB1       0.108500
     57 H9          -4.4030    -1.1310    -1.6020 h1         1 AB1       0.045700
     58 H15         -2.4550    -1.3770    -0.5620 hn         1 AB1       0.303500
     59 H16         -2.2180     0.3320     1.8140 h1         1 AB1       0.086700
     60 H10         -3.3170     1.3350    -2.9590 hc         1 AB1       0.095700
     61 H11         -1.9770    -0.3800    -4.1600 hc         1 AB1       0.033033
     62 H12         -1.6220    -0.4060    -2.4460 hc         1 AB1       0.033033
     63 H47         -2.6600    -1.6470    -3.1480 hc         1 AB1       0.033033
     64 H13         -5.4550     0.7650    -4.0770 hc         1 AB1       0.033033
     65 H14         -4.1070     0.2120    -5.0610 hc         1 AB1       0.033033
     66 H48         -5.0160    -0.9430    -4.0920 hc         1 AB1       0.033033
     67 H20         -6.0210    -4.0220     0.9770 ha         1 AB1       0.113000
     68 H21         -7.3270    -2.7010     2.6130 ha         1 AB1       0.112000
     69 H22         -6.1890    -0.9790     3.9810 ha         1 AB1       0.113000
     70 H23         -3.7740    -0.5820     3.7130 ha         1 AB1       0.111500
     71 H19         -3.6050    -3.6240     0.7120 ha         1 AB1       0.111500
     72 H17         -1.5740    -2.6290     1.4810 hc         1 AB1       0.055200
     73 H18         -1.5550    -1.7140     2.9770 hc         1 AB1       0.055200
     74 H24          0.1940    -0.4530     1.9830 hc         1 AB1       0.056700
     75 H25          0.0950    -0.9790     0.3210 hc         1 AB1       0.056700
     76 H26         -0.4610     1.8710     1.2660 h1         1 AB1       0.084700
     77 H27          1.8080     1.2660     1.8070 h1         1 AB1       0.086700
     78 H35          2.3490     0.6610    -1.0290 hn         1 AB1       0.304500
     79 H36          3.6490    -1.2360    -1.4090 h1         1 AB1       0.046700
     80 H37          4.8520    -0.0310    -0.9680 h1         1 AB1       0.046700
     81 H1          -0.1850     0.7480    -1.2880 ho         1 AB1       0.433000
     82 H28          1.6300     3.0920    -0.6280 hc         1 AB1       0.064200
     83 H29          1.3290     3.5590     1.0360 hc         1 AB1       0.064200
     84 H41          9.4110    -0.7880     0.0140 ha         1 AB1       0.113500
     85 H42          9.8800    -2.3740    -1.8180 ha         1 AB1       0.114000
     86 H43          8.0450    -3.7110    -2.7950 ha         1 AB1       0.113500
     87 H44          4.8450    -4.2140    -1.3560 hc         1 AB1       0.047200
     88 H45          4.7100    -3.0530    -2.6640 hc         1 AB1       0.047200
     89 H46          5.8010    -4.4210    -2.8210 hc         1 AB1       0.047200
     90 H38          6.4050    -0.7010     1.9720 hc         1 AB1       0.047200
     91 H39          7.9620     0.0720     1.6650 hc         1 AB1       0.047200
     92 H40          6.5150     0.6430     0.8570 hc         1 AB1       0.047200
     93 H6          -8.3020    -0.2400    -1.7280 hc         1 AB1       0.057700
     94 H7          -8.5430    -0.6970    -0.0420 hc         1 AB1       0.057700
@<TRIPOS>BOND
     1     1     5 1   
     2     1    46 1   
     3     1    47 1   
     4     1    48 1   
     5     2     3 1   
     6     2    46 1   
     7     2    49 1   
     8     2    50 1   
     9     3     4 1   
    10     3    13 1   
    11     4     5 1   
    12     4    12 2   
    13     5    51 1   
    14     6     7 ar  
    15     6    11 ar  
    16     6    37 1   
    17     7     8 ar  
    18     7    52 1   
    19     8     9 ar  
    20     8    53 1   
    21     9    10 ar  
    22     9    54 1   
    23    10    11 ar  
    24    10    55 1   
    25    11    56 1   
    26    13    14 1   
    27    13    17 1   
    28    13    57 1   
    29    14    15 1   
    30    14    20 2   
    31    15    16 1   
    32    15    58 1   
    33    16    27 1   
    34    16    28 1   
    35    16    59 1   
    36    17    18 1   
    37    17    19 1   
    38    17    60 1   
    39    18    61 1   
    40    18    62 1   
    41    18    63 1   
    42    19    64 1   
    43    19    65 1   
    44    19    66 1   
    45    21    22 ar  
    46    21    26 ar  
    47    21    67 1   
    48    22    23 ar  
    49    22    68 1   
    50    23    24 ar  
    51    23    69 1   
    52    24    25 ar  
    53    24    70 1   
    54    25    26 ar  
    55    25    27 1   
    56    26    71 1   
    57    27    72 1   
    58    27    73 1   
    59    28    29 1   
    60    28    74 1   
    61    28    75 1   
    62    29    30 1   
    63    29    36 1   
    64    29    76 1   
    65    30    31 1   
    66    30    37 1   
    67    30    77 1   
    68    31    32 1   
    69    31    78 1   
    70    32    33 1   
    71    32    38 2   
    72    33    34 1   
    73    33    79 1   
    74    33    80 1   
    75    34    35 1   
    76    35    39 ar  
    77    35    43 ar  
    78    36    81 1   
    79    37    82 1   
    80    37    83 1   
    81    39    40 ar  
    82    39    45 1   
    83    40    41 ar  
    84    40    84 1   
    85    41    42 ar  
    86    41    85 1   
    87    42    43 ar  
    88    42    86 1   
    89    43    44 1   
    90    44    87 1   
    91    44    88 1   
    92    44    89 1   
    93    45    90 1   
    94    45    91 1   
    95    45    92 1   
    96    46    93 1   
    97    46    94 1   
@<TRIPOS>SUBSTRUCTURE
     1 AB1         1 TEMP              0 ****  ****    0 ROOT
