@<TRIPOS>MOLECULE
AB2
   88    92     1     0     0
SMALL
No Charge or Current Charge


@<TRIPOS>ATOM
      1 C1          -7.0160     5.9240     1.4190 c3         1 AB2       0.145900
      2 O1          -5.8970     5.2300     0.8390 os         1 AB2      -0.332100
      3 C2          -5.8710     3.8570     0.7060 ca         1 AB2       0.199100
      4 C3          -4.7310     3.2770     0.1310 ca         1 AB2      -0.195500
      5 C4          -4.6420     1.8850    -0.0310 ca         1 AB2       0.025000
      6 C5          -5.7000     1.0600     0.3970 ca         1 AB2      -0.339500
      7 C6          -6.8550     1.6390     0.9580 ca         1 AB2       0.025000
      8 C7          -6.9380     3.0320     1.1180 ca         1 AB2      -0.195500
      9 S1          -5.5850    -0.7290     0.1920 sy         1 AB2       1.189600
     10 O2          -4.9700    -0.9520    -1.1200 o          1 AB2      -0.541500
     11 O3          -6.8520    -1.3690     0.5600 o          1 AB2      -0.541500
     12 N1          -4.4250    -1.2230     1.3570 n3         1 AB2      -0.772500
     13 C8          -4.1790    -0.3460     2.5270 c3         1 AB2       0.233800
     14 C9          -5.3460    -0.2750     3.5490 c3         1 AB2      -0.082700
     15 C10         -5.6260    -1.6480     4.2070 c3         1 AB2      -0.084600
     16 C11         -5.0840     0.8120     4.6160 c3         1 AB2      -0.084600
     17 C12         -3.2410    -1.9750     0.8530 c3         1 AB2       0.196800
     18 C13         -2.0980    -1.1370     0.1790 c3         1 AB2       0.124300
     19 O4          -1.4270    -0.2860     1.1370 oh         1 AB2      -0.644000
     20 C14         -1.0660    -2.0230    -0.5850 c3         1 AB2       0.057300
     21 C15         -0.2150    -2.9560     0.3260 c3         1 AB2      -0.043100
     22 C16          0.7010    -3.8740    -0.4770 ca         1 AB2      -0.097300
     23 C17          2.0800    -3.6020    -0.5730 ca         1 AB2      -0.096500
     24 C18          2.9180    -4.4420    -1.3260 ca         1 AB2      -0.103000
     25 C19          2.3830    -5.5610    -1.9860 ca         1 AB2      -0.099000
     26 C20          1.0090    -5.8390    -1.8930 ca         1 AB2      -0.103000
     27 C21          0.1700    -4.9980    -1.1410 ca         1 AB2      -0.096500
     28 N2          -0.2240    -1.2130    -1.4920 na         1 AB2       0.126800
     29 C22          0.8240    -0.3910    -1.1580 cc         1 AB2      -0.174000
     30 C23          1.2560     0.0810    -2.3650 cd         1 AB2       0.181300
     31 C24          2.4020     1.0280    -2.6360 c3         1 AB2       0.170300
     32 O5           3.5620     0.6010    -1.8920 os         1 AB2      -0.470100
     33 C25          4.6980     1.3400    -2.0120 c          1 AB2       0.644100
     34 O6           4.8260     2.3420    -2.6980 o          1 AB2      -0.535000
     35 N3           5.6690     0.7710    -1.2370 ns         1 AB2      -0.492900
     36 C26          6.9920     1.4050    -1.1940 c5         1 AB2       0.176000
     37 C27          6.8750     2.5520    -0.0910 c5         1 AB2       0.156300
     38 O7           7.7680     3.6360    -0.3750 oh         1 AB2      -0.646000
     39 C28          7.2800     1.8530     1.2690 c5         1 AB2      -0.075100
     40 C29          8.1920     0.7580     0.7790 ca         1 AB2      -0.081300
     41 C30          9.1080     0.0200     1.5460 ca         1 AB2      -0.102000
     42 C31          9.8740    -0.9800     0.9150 ca         1 AB2      -0.102000
     43 C32          9.7130    -1.2310    -0.4640 ca         1 AB2      -0.115000
     44 C33          8.7860    -0.4830    -1.2160 ca         1 AB2      -0.068000
     45 C34          8.0350     0.5130    -0.5700 ca         1 AB2      -0.116300
     46 N4           0.4650    -0.4420    -3.3690 nd         1 AB2      -0.352000
     47 N5          -0.4340    -1.2290    -2.8400 nc         1 AB2      -0.195800
     48 H11         -6.8280     7.0040     1.4310 h1         1 AB2       0.045700
     49 H12         -7.9300     5.7440     0.8390 h1         1 AB2       0.045700
     50 H13A        -7.1840     5.5970     2.4530 h1         1 AB2       0.045700
     51 H3          -3.9100     3.9110    -0.1920 ha         1 AB2       0.129000
     52 H4          -3.7480     1.4560    -0.4780 ha         1 AB2       0.132500
     53 H6          -7.6910     1.0170     1.2770 ha         1 AB2       0.132500
     54 H7          -7.8370     3.4510     1.5600 ha         1 AB2       0.129000
     55 H81         -3.3090    -0.7210     3.0840 h1         1 AB2       0.042200
     56 H82         -3.9090     0.6660     2.2040 h1         1 AB2       0.042200
     57 H9          -6.2580     0.0180     3.0210 hc         1 AB2       0.082700
     58 H101        -4.7470    -2.0030     4.7590 hc         1 AB2       0.033867
     59 H102        -6.4660    -1.5780     4.9070 hc         1 AB2       0.033867
     60 H103        -5.8810    -2.3990     3.4500 hc         1 AB2       0.033867
     61 H111        -4.9480     1.7920     4.1430 hc         1 AB2       0.033867
     62 H112        -5.9300     0.8860     5.3100 hc         1 AB2       0.033867
     63 H113        -4.1820     0.5810     5.1960 hc         1 AB2       0.033867
     64 H121        -2.8020    -2.5400     1.6860 h1         1 AB2       0.072200
     65 H122        -3.5770    -2.7360     0.1350 h1         1 AB2       0.072200
     66 H13         -2.5700    -0.5080    -0.5860 h1         1 AB2       0.096700
     67 HO4         -1.1750    -0.8380     1.9080 ho         1 AB2       0.441000
     68 H14         -1.6540    -2.6840    -1.2360 h1         1 AB2       0.105700
     69 H151         0.3770    -2.3520     1.0240 hc         1 AB2       0.055200
     70 H152        -0.8780    -3.5710     0.9460 hc         1 AB2       0.055200
     71 H17          2.5040    -2.7360    -0.0690 ha         1 AB2       0.109000
     72 H18          3.9820    -4.2260    -1.3980 ha         1 AB2       0.116000
     73 H19          3.0320    -6.2120    -2.5690 ha         1 AB2       0.116000
     74 H20          0.5930    -6.7040    -2.4040 ha         1 AB2       0.116000
     75 H21         -0.8930    -5.2200    -1.0770 ha         1 AB2       0.109000
     76 H22          1.1680    -0.2200    -0.1480 h4         1 AB2       0.177000
     77 H241         2.6130     1.0380    -3.7130 h1         1 AB2       0.069700
     78 H242         2.0980     2.0400    -2.3390 h1         1 AB2       0.069700
     79 HN3          5.4200    -0.0650    -0.7260 hn         1 AB2       0.321500
     80 H26          7.3170     1.7980    -2.1680 h1         1 AB2       0.110700
     81 H27          5.8510     2.9470    -0.0300 h1         1 AB2       0.048700
     82 HO7          7.6630     4.2900     0.3510 ho         1 AB2       0.447000
     83 H281         7.7680     2.5380     1.9720 hc         1 AB2       0.056200
     84 H282         6.4020     1.4360     1.7760 hc         1 AB2       0.056200
     85 H30          9.2240     0.2160     2.6090 ha         1 AB2       0.112000
     86 H31         10.5890    -1.5610     1.4930 ha         1 AB2       0.112000
     87 H32         10.3040    -2.0060    -0.9470 ha         1 AB2       0.116000
     88 H33          8.6540    -0.6750    -2.2790 ha         1 AB2       0.135000
@<TRIPOS>BOND
     1     1     2 1   
     2     1    48 1   
     3     1    49 1   
     4     1    50 1   
     5     2     3 1   
     6     3     4 ar  
     7     3     8 ar  
     8     4     5 ar  
     9     4    51 1   
    10     5     6 ar  
    11     5    52 1   
    12     6     7 ar  
    13     6     9 1   
    14     7     8 ar  
    15     7    53 1   
    16     8    54 1   
    17     9    10 2   
    18     9    11 2   
    19     9    12 1   
    20    12    13 1   
    21    12    17 1   
    22    13    14 1   
    23    13    55 1   
    24    13    56 1   
    25    14    15 1   
    26    14    16 1   
    27    14    57 1   
    28    15    58 1   
    29    15    59 1   
    30    15    60 1   
    31    16    61 1   
    32    16    62 1   
    33    16    63 1   
    34    17    18 1   
    35    17    64 1   
    36    17    65 1   
    37    18    19 1   
    38    18    20 1   
    39    18    66 1   
    40    19    67 1   
    41    20    21 1   
    42    20    28 1   
    43    20    68 1   
    44    21    22 1   
    45    21    69 1   
    46    21    70 1   
    47    22    23 ar  
    48    22    27 ar  
    49    23    24 ar  
    50    23    71 1   
    51    24    25 ar  
    52    24    72 1   
    53    25    26 ar  
    54    25    73 1   
    55    26    27 ar  
    56    26    74 1   
    57    27    75 1   
    58    28    29 1   
    59    28    47 1   
    60    29    30 2   
    61    29    76 1   
    62    30    31 1   
    63    30    46 1   
    64    31    32 1   
    65    31    77 1   
    66    31    78 1   
    67    32    33 1   
    68    33    34 2   
    69    33    35 1   
    70    35    36 1   
    71    35    79 1   
    72    36    37 1   
    73    36    45 1   
    74    36    80 1   
    75    37    38 1   
    76    37    39 1   
    77    37    81 1   
    78    38    82 1   
    79    39    40 1   
    80    39    83 1   
    81    39    84 1   
    82    40    41 ar  
    83    40    45 ar  
    84    41    42 ar  
    85    41    85 1   
    86    42    43 ar  
    87    42    86 1   
    88    43    44 ar  
    89    43    87 1   
    90    44    45 ar  
    91    44    88 1   
    92    46    47 2   
@<TRIPOS>SUBSTRUCTURE
     1 AB2         1 TEMP              0 ****  ****    0 ROOT
