@<TRIPOS>MOLECULE
AB2
   88    92     1     0     0
SMALL
abcg2


@<TRIPOS>ATOM
      1 C1          -2.3710     6.0630     0.4660 c3         1 AB2       0.145900
      2 O1          -2.3300     5.0140    -0.4860 os         1 AB2      -0.332100
      3 C2          -3.0600     3.9160    -0.2680 ca         1 AB2       0.199100
      4 C3          -2.9660     2.9100    -1.2360 ca         1 AB2      -0.195500
      5 C4          -3.6760     1.7380    -1.0940 ca         1 AB2       0.025000
      6 C5          -4.4910     1.5480     0.0210 ca         1 AB2      -0.339500
      7 C6          -4.6110     2.5530     0.9700 ca         1 AB2       0.025000
      8 C7          -3.8950     3.7330     0.8340 ca         1 AB2      -0.195500
      9 S1          -5.3690     0.0280     0.2270 sy         1 AB2       1.189600
     10 O2          -5.4540    -0.6160    -1.0760 o          1 AB2      -0.541500
     11 O3          -6.5870     0.3480     0.9550 o          1 AB2      -0.541500
     12 N1          -4.4670    -0.9540     1.1860 n3         1 AB2      -0.772500
     13 C8          -4.3600    -0.6290     2.6090 c3         1 AB2       0.233800
     14 C9          -5.4320    -1.2630     3.4930 c3         1 AB2      -0.082700
     15 C10         -5.4730    -2.7780     3.3410 c3         1 AB2      -0.084600
     16 C11         -5.1730    -0.8610     4.9410 c3         1 AB2      -0.084600
     17 C12         -3.5540    -1.9230     0.5990 c3         1 AB2       0.196800
     18 C13         -2.2540    -1.3240     0.0640 c3         1 AB2       0.124300
     19 O4          -1.5510    -0.5830     1.0240 oh         1 AB2      -0.644000
     20 C14         -1.3960    -2.4100    -0.6100 c3         1 AB2       0.057300
     21 C15         -0.6990    -3.3680     0.3610 c3         1 AB2      -0.043100
     22 C16          0.0730    -4.4330    -0.3690 ca         1 AB2      -0.097300
     23 C17          1.4530    -4.3390    -0.5220 ca         1 AB2      -0.096500
     24 C18          2.1570    -5.3080    -1.2260 ca         1 AB2      -0.103000
     25 C19          1.4860    -6.3860    -1.7850 ca         1 AB2      -0.099000
     26 C20          0.1090    -6.4900    -1.6360 ca         1 AB2      -0.103000
     27 C21         -0.5900    -5.5200    -0.9340 ca         1 AB2      -0.096500
     28 N2          -0.4210    -1.7970    -1.4960 na         1 AB2       0.126800
     29 C22          0.5960    -0.9680    -1.1930 cc         1 AB2      -0.174000
     30 C23          1.1860    -0.7190    -2.4040 cd         1 AB2       0.181300
     31 C24          2.3500     0.1430    -2.7430 c3         1 AB2       0.170300
     32 O5           2.8570     0.6420    -1.5150 os         1 AB2      -0.470100
     33 C25          3.8770     1.5090    -1.5880 c          1 AB2       0.644100
     34 O6           4.3810     1.8660    -2.6320 o          1 AB2      -0.535000
     35 N3           4.2360     1.9320    -0.3640 ns         1 AB2      -0.492900
     36 C26          5.4000     2.7730    -0.1640 c5         1 AB2       0.176000
     37 C27          5.3270     3.4740     1.2070 c5         1 AB2       0.156300
     38 O7           6.0510     4.6740     1.0620 oh         1 AB2      -0.646000
     39 C28          6.0320     2.5060     2.1710 c5         1 AB2      -0.075100
     40 C29          7.0240     1.8070     1.2840 ca         1 AB2      -0.081300
     41 C30          8.1480     1.0750     1.6300 ca         1 AB2      -0.102000
     42 C31          8.9170     0.5060     0.6190 ca         1 AB2      -0.102000
     43 C32          8.5640     0.6670    -0.7170 ca         1 AB2      -0.115000
     44 C33          7.4330     1.4000    -1.0630 ca         1 AB2      -0.068000
     45 C34          6.6730     1.9660    -0.0530 ca         1 AB2      -0.116300
     46 N4           0.5070    -1.4000    -3.3490 nd         1 AB2      -0.352000
     47 N5          -0.4570    -2.0470    -2.7910 nc         1 AB2      -0.195800
     48 H11         -1.6940     6.8320     0.1040 h1         1 AB2       0.045700
     49 H12         -3.3730     6.4890     0.5560 h1         1 AB2       0.045700
     50 H13A        -2.0350     5.7290     1.4500 h1         1 AB2       0.045700
     51 H3          -2.3370     3.0610    -2.1040 ha         1 AB2       0.129000
     52 H4          -3.6040     0.9850    -1.8670 ha         1 AB2       0.132500
     53 H6          -5.2700     2.4430     1.8200 ha         1 AB2       0.132500
     54 H7          -4.0110     4.4940     1.5930 ha         1 AB2       0.129000
     55 H81         -3.3780    -0.9620     2.9460 h1         1 AB2       0.042200
     56 H82         -4.3510     0.4560     2.7500 h1         1 AB2       0.042200
     57 H9          -6.4030    -0.8600     3.1930 hc         1 AB2       0.082700
     58 H101        -4.5170    -3.2310     3.6190 hc         1 AB2       0.033867
     59 H102        -6.2390    -3.2080     3.9880 hc         1 AB2       0.033867
     60 H103        -5.7040    -3.0760     2.3180 hc         1 AB2       0.033867
     61 H111        -5.1600     0.2240     5.0610 hc         1 AB2       0.033867
     62 H112        -5.9460    -1.2570     5.6000 hc         1 AB2       0.033867
     63 H113        -4.2120    -1.2460     5.2910 hc         1 AB2       0.033867
     64 H121        -3.3530    -2.6610     1.3780 h1         1 AB2       0.072200
     65 H122        -4.0540    -2.4660    -0.2020 h1         1 AB2       0.072200
     66 H13         -2.5060    -0.6120    -0.7240 h1         1 AB2       0.096700
     67 HO4         -1.3300    -1.1470     1.7730 ho         1 AB2       0.441000
     68 H14         -2.0490    -2.9830    -1.2720 h1         1 AB2       0.105700
     69 H151        -0.0280    -2.8180     1.0250 hc         1 AB2       0.055200
     70 H152        -1.4570    -3.8350     0.9950 hc         1 AB2       0.055200
     71 H17          1.9870    -3.5050    -0.0820 ha         1 AB2       0.109000
     72 H18          3.2300    -5.2200    -1.3330 ha         1 AB2       0.116000
     73 H19          2.0340    -7.1440    -2.3310 ha         1 AB2       0.116000
     74 H20         -0.4210    -7.3320    -2.0650 ha         1 AB2       0.116000
     75 H21         -1.6640    -5.6110    -0.8190 ha         1 AB2       0.109000
     76 H22          0.8120    -0.6370    -0.1940 h4         1 AB2       0.177000
     77 H241         3.1110    -0.4340    -3.2750 h1         1 AB2       0.069700
     78 H242         2.0400     0.9610    -3.3970 h1         1 AB2       0.069700
     79 HN3          3.8200     1.4830     0.4380 hn         1 AB2       0.321500
     80 H26          5.4300     3.5110    -0.9660 h1         1 AB2       0.110700
     81 H27          4.2890     3.6680     1.5030 h1         1 AB2       0.048700
     82 HO7          6.1800     5.0580     1.9350 ho         1 AB2       0.447000
     83 H281         6.4860     3.0250     3.0170 hc         1 AB2       0.056200
     84 H282         5.3210     1.7910     2.5960 hc         1 AB2       0.056200
     85 H30          8.4330     0.9510     2.6680 ha         1 AB2       0.112000
     86 H31          9.8040    -0.0610     0.8740 ha         1 AB2       0.112000
     87 H32          9.1770     0.2250    -1.4910 ha         1 AB2       0.116000
     88 H33          7.1590     1.5280    -2.1020 ha         1 AB2       0.135000
@<TRIPOS>BOND
     1     1     2 1   
     2     1    48 1   
     3     1    49 1   
     4     1    50 1   
     5     2     3 1   
     6     3     4 ar  
     7     3     8 ar  
     8     4     5 ar  
     9     4    51 1   
    10     5     6 ar  
    11     5    52 1   
    12     6     7 ar  
    13     6     9 1   
    14     7     8 ar  
    15     7    53 1   
    16     8    54 1   
    17     9    10 2   
    18     9    11 2   
    19     9    12 1   
    20    12    13 1   
    21    12    17 1   
    22    13    14 1   
    23    13    55 1   
    24    13    56 1   
    25    14    15 1   
    26    14    16 1   
    27    14    57 1   
    28    15    58 1   
    29    15    59 1   
    30    15    60 1   
    31    16    61 1   
    32    16    62 1   
    33    16    63 1   
    34    17    18 1   
    35    17    64 1   
    36    17    65 1   
    37    18    19 1   
    38    18    20 1   
    39    18    66 1   
    40    19    67 1   
    41    20    21 1   
    42    20    28 1   
    43    20    68 1   
    44    21    22 1   
    45    21    69 1   
    46    21    70 1   
    47    22    23 ar  
    48    22    27 ar  
    49    23    24 ar  
    50    23    71 1   
    51    24    25 ar  
    52    24    72 1   
    53    25    26 ar  
    54    25    73 1   
    55    26    27 ar  
    56    26    74 1   
    57    27    75 1   
    58    28    29 1   
    59    28    47 1   
    60    29    30 2   
    61    29    76 1   
    62    30    31 1   
    63    30    46 1   
    64    31    32 1   
    65    31    77 1   
    66    31    78 1   
    67    32    33 1   
    68    33    34 2   
    69    33    35 1   
    70    35    36 1   
    71    35    79 1   
    72    36    37 1   
    73    36    45 1   
    74    36    80 1   
    75    37    38 1   
    76    37    39 1   
    77    37    81 1   
    78    38    82 1   
    79    39    40 1   
    80    39    83 1   
    81    39    84 1   
    82    40    41 ar  
    83    40    45 ar  
    84    41    42 ar  
    85    41    85 1   
    86    42    43 ar  
    87    42    86 1   
    88    43    44 ar  
    89    43    87 1   
    90    44    45 ar  
    91    44    88 1   
    92    46    47 2   
@<TRIPOS>SUBSTRUCTURE
     1 AB2         1 TEMP              0 ****  ****    0 ROOT
