@<TRIPOS>MOLECULE
AB3
   38    40     1     0     0
SMALL
bcc


@<TRIPOS>ATOM
      1 C20          2.1940     3.1380     0.3090 c3         1 AB3      -0.100767
      2 C14          2.7940     1.7460     0.1380 c3         1 AB3       0.104700
      3 C19          3.5790     1.6830    -1.1730 c3         1 AB3      -0.100767
      4 C21          3.7020     1.4340     1.3270 c3         1 AB3      -0.100767
      5 N11          1.7050     0.7480     0.0910 na         1 AB3       0.012200
      6 N15          0.4240     1.1090     0.2280 nc         1 AB3      -0.517100
      7 C7           1.8120    -0.5900    -0.0620 ca         1 AB3       0.485800
      8 N3           2.9310    -1.3060    -0.2220 nb         1 AB3      -0.761000
      9 C6           2.6910    -2.5900    -0.3720 ca         1 AB3       0.719900
     10 N5           1.5160    -3.2170    -0.4100 nb         1 AB3      -0.840000
     11 C2           0.4000    -2.5000    -0.2620 ca         1 AB3       0.785200
     12 N1          -0.7660    -3.1420    -0.3420 nv         1 AB3      -0.959500
     13 C4           0.5130    -1.1070    -0.0310 ca         1 AB3      -0.509500
     14 C13         -0.3180     0.0280     0.1660 cd         1 AB3       0.422500
     15 C18         -1.7760     0.1220     0.3030 ca         1 AB3      -0.053900
     16 C28         -2.4630     1.1520    -0.3360 ca         1 AB3      -0.198000
     17 C27         -2.4750    -0.7870     1.0950 ca         1 AB3      -0.171000
     18 C30         -3.8530    -0.6660     1.2240 ca         1 AB3      -0.097000
     19 C26         -4.5420     0.3500     0.5840 ca         1 AB3      -0.159000
     20 C29         -3.8420     1.2680    -0.1980 ca         1 AB3       0.139100
     21 O33         -4.5480     2.2430    -0.8000 oh         1 AB3      -0.494100
     22 H201         1.5250     3.4030    -0.5080 hc         1 AB3       0.050478
     23 H202         1.6470     3.2330     1.2460 hc         1 AB3       0.050478
     24 H203         3.0120     3.8580     0.3230 hc         1 AB3       0.050478
     25 H191         4.3610     2.4430    -1.1680 hc         1 AB3       0.050478
     26 H192         4.0550     0.7130    -1.3080 hc         1 AB3       0.050478
     27 H193         2.9280     1.8720    -2.0280 hc         1 AB3       0.050478
     28 H211         3.1390     1.4550     2.2620 hc         1 AB3       0.050478
     29 H212         4.1730     0.4580     1.2290 hc         1 AB3       0.050478
     30 H213         4.4920     2.1840     1.3920 hc         1 AB3       0.050478
     31 H6           3.5590    -3.2290    -0.4930 h5         1 AB3       0.044100
     32 HN11        -1.6430    -2.6520    -0.3580 hn         1 AB3       0.448300
     33 HN12        -0.7720    -4.1200    -0.5790 hn         1 AB3       0.448300
     34 H28         -1.9170     1.8590    -0.9510 ha         1 AB3       0.144000
     35 H27         -1.9500    -1.5650     1.6350 ha         1 AB3       0.142000
     36 H30         -4.3970    -1.3690     1.8420 ha         1 AB3       0.135000
     37 H26         -5.6160     0.4390     0.6880 ha         1 AB3       0.148000
     38 H33         -3.9670     2.8130    -1.3160 ho         1 AB3       0.428000
@<TRIPOS>BOND
     1     1     2 1   
     2     1    22 1   
     3     1    23 1   
     4     1    24 1   
     5     2     3 1   
     6     2     4 1   
     7     2     5 1   
     8     3    25 1   
     9     3    26 1   
    10     3    27 1   
    11     4    28 1   
    12     4    29 1   
    13     4    30 1   
    14     5     6 1   
    15     5     7 1   
    16     6    14 2   
    17     7     8 ar  
    18     7    13 ar  
    19     8     9 ar  
    20     9    10 ar  
    21     9    31 1   
    22    10    11 ar  
    23    11    12 1   
    24    11    13 ar  
    25    12    32 1   
    26    12    33 1   
    27    13    14 1   
    28    14    15 1   
    29    15    16 ar  
    30    15    17 ar  
    31    16    20 ar  
    32    16    34 1   
    33    17    18 ar  
    34    17    35 1   
    35    18    19 ar  
    36    18    36 1   
    37    19    20 ar  
    38    19    37 1   
    39    20    21 1   
    40    21    38 1   
@<TRIPOS>SUBSTRUCTURE
     1 AB3         1 TEMP              0 ****  ****    0 ROOT
