@<TRIPOS>MOLECULE
AB3
   38    40     1     0     0
SMALL
No Charge or Current Charge


@<TRIPOS>ATOM
      1 C20          2.4050     3.2500     0.3750 c3         1 AB3      -0.100767
      2 C14          2.8790     1.7820     0.1690 c3         1 AB3       0.134000
      3 C19          3.6530     1.7180    -1.1750 c3         1 AB3      -0.100767
      4 C21          3.8340     1.4250     1.3400 c3         1 AB3      -0.100767
      5 N11          1.7160     0.8340     0.1410 na         1 AB3      -0.017100
      6 N15          0.3770     1.2440     0.2270 nc         1 AB3      -0.517100
      7 C7           1.8160    -0.5510    -0.0080 ca         1 AB3       0.157500
      8 N3           2.8670    -1.3790    -0.1850 nb         1 AB3      -0.235000
      9 C6           2.5680    -2.6860    -0.3700 ca         1 AB3       0.193900
     10 N5           1.3300    -3.2310    -0.4220 nb         1 AB3      -0.314000
     11 C2           0.3070    -2.3850    -0.2440 ca         1 AB3       0.456900
     12 N1          -0.9200    -2.9320    -0.3620 nv         1 AB3      -1.069900
     13 C4           0.5370    -1.0340    -0.0050 ca         1 AB3      -0.378900
     14 C13         -0.3270     0.1090     0.1730 cd         1 AB3       0.422500
     15 C18         -1.8000     0.0960     0.2880 ca         1 AB3      -0.053900
     16 C28         -2.5790     1.0350    -0.4240 ca         1 AB3      -0.180000
     17 C27         -2.4460    -0.7780     1.1890 ca         1 AB3      -0.153000
     18 C30         -3.8440    -0.7540     1.3320 ca         1 AB3      -0.079000
     19 C26         -4.6090     0.1610     0.5900 ca         1 AB3      -0.141000
     20 C29         -3.9760     1.0580    -0.2810 ca         1 AB3       0.139100
     21 O33         -4.7220     1.9560    -0.9840 oh         1 AB3      -0.533100
     22 H201         1.7450     3.5700    -0.4400 hc         1 AB3       0.050478
     23 H202         1.8600     3.3580     1.3210 hc         1 AB3       0.050478
     24 H203         3.2580     3.9390     0.4020 hc         1 AB3       0.050478
     25 H191         4.4690     2.4510    -1.1920 hc         1 AB3       0.050478
     26 H192         4.0950     0.7300    -1.3420 hc         1 AB3       0.050478
     27 H193         2.9850     1.9360    -2.0180 hc         1 AB3       0.050478
     28 H211         3.2940     1.4290     2.2950 hc         1 AB3       0.050478
     29 H212         4.2840     0.4350     1.2100 hc         1 AB3       0.050478
     30 H213         4.6530     2.1510     1.4120 hc         1 AB3       0.050478
     31 H6           3.4080    -3.3640    -0.5120 h5         1 AB3       0.044100
     32 HN11        -1.7210    -2.3150    -0.4570 hn         1 AB3       0.503500
     33 HN12        -0.9990    -3.8600    -0.7680 hn         1 AB3       0.503500
     34 H28         -2.0880     1.7370    -1.0940 ha         1 AB3       0.126000
     35 H27         -1.8600    -1.4690     1.7920 ha         1 AB3       0.124000
     36 H30         -4.3330    -1.4370     2.0240 ha         1 AB3       0.117000
     37 H26         -5.6900     0.1820     0.7010 ha         1 AB3       0.130000
     38 H33         -4.1180     2.5010    -1.5320 ho         1 AB3       0.467000
@<TRIPOS>BOND
     1     1     2 1   
     2     1    22 1   
     3     1    23 1   
     4     1    24 1   
     5     2     3 1   
     6     2     4 1   
     7     2     5 1   
     8     3    25 1   
     9     3    26 1   
    10     3    27 1   
    11     4    28 1   
    12     4    29 1   
    13     4    30 1   
    14     5     6 1   
    15     5     7 1   
    16     6    14 2   
    17     7     8 ar  
    18     7    13 ar  
    19     8     9 ar  
    20     9    10 ar  
    21     9    31 1   
    22    10    11 ar  
    23    11    12 1   
    24    11    13 ar  
    25    12    32 1   
    26    12    33 1   
    27    13    14 1   
    28    14    15 1   
    29    15    16 ar  
    30    15    17 ar  
    31    16    20 ar  
    32    16    34 1   
    33    17    18 ar  
    34    17    35 1   
    35    18    19 ar  
    36    18    36 1   
    37    19    20 ar  
    38    19    37 1   
    39    20    21 1   
    40    21    38 1   
@<TRIPOS>SUBSTRUCTURE
     1 AB3         1 TEMP              0 ****  ****    0 ROOT
