@<TRIPOS>MOLECULE
AB4
   45    48     1     0     0
SMALL
No Charge or Current Charge


@<TRIPOS>ATOM
      1 Cl22         1.5860     2.8050    -0.2610 cl         1 AB4      -0.154000
      2 C10          2.5600     1.5820     0.5600 ca         1 AB4       0.206000
      3 C19          2.7380     1.7220     1.9470 ca         1 AB4      -0.124000
      4 C23          3.4830     0.7740     2.6710 ca         1 AB4      -0.048000
      5 C20          4.0510    -0.3210     2.0050 ca         1 AB4       0.093000
      6 Cl24         4.9790    -1.5130     2.9090 cl         1 AB4      -0.183000
      7 C7           3.8800    -0.4710     0.6190 ca         1 AB4      -0.002000
      8 C2           3.1360     0.4820    -0.1150 ca         1 AB4      -0.249500
      9 S1           2.9200     0.2420    -1.8820 sy         1 AB4       1.157600
     10 O8           3.2180     1.4830    -2.5980 o          1 AB4      -0.534500
     11 O9           3.4790    -1.0470    -2.3000 o          1 AB4      -0.534500
     12 N5           1.2630     0.0830    -2.1180 nu         1 AB4      -0.905100
     13 C14          0.3370    -0.6820    -1.4010 ca         1 AB4       0.184000
     14 C12         -0.9960    -0.2400    -1.3210 ca         1 AB4      -0.043000
     15 C21          0.7000    -1.8760    -0.7420 ca         1 AB4      -0.049000
     16 C18         -0.2560    -2.6030    -0.0110 ca         1 AB4      -0.152000
     17 C11         -1.5790    -2.1480     0.0700 ca         1 AB4       0.169100
     18 O25         -2.4830    -2.8710     0.7890 oh         1 AB4      -0.531100
     19 C3          -1.9690    -0.9550    -0.5840 cp         1 AB4      -0.101000
     20 C4          -3.3710    -0.4410    -0.4990 cp         1 AB4      -0.117000
     21 C6          -3.8260     0.2840     0.6410 ca         1 AB4       0.010000
     22 C27         -2.9630     0.5540     1.7280 ca         1 AB4      -0.113000
     23 C29         -3.4230     1.2680     2.8470 ca         1 AB4      -0.090000
     24 C30         -4.7490     1.7240     2.8950 ca         1 AB4      -0.117000
     25 C28         -5.6160     1.4680     1.8220 ca         1 AB4      -0.085000
     26 C15         -5.1600     0.7530     0.6970 ca         1 AB4      -0.076000
     27 C17         -6.0390     0.5100    -0.3730 ca         1 AB4      -0.044000
     28 C16         -5.5970    -0.1960    -1.5010 ca         1 AB4      -0.196000
     29 C13         -4.2770    -0.6670    -1.5670 ca         1 AB4       0.166100
     30 O26         -3.8820    -1.3570    -2.6770 oh         1 AB4      -0.513100
     31 H19          2.2930     2.5670     2.4650 ha         1 AB4       0.136000
     32 H23          3.6160     0.8870     3.7440 ha         1 AB4       0.136000
     33 H7           4.3290    -1.3300     0.1250 ha         1 AB4       0.164000
     34 H5           0.9600     0.9880    -2.4560 hn         1 AB4       0.502000
     35 H12         -1.2870     0.6790    -1.8230 ha         1 AB4       0.125000
     36 H21          1.7170    -2.2520    -0.7940 ha         1 AB4       0.127000
     37 H18          0.0320    -3.5220     0.4930 ha         1 AB4       0.134000
     38 H25         -3.3430    -2.4040     0.7260 ho         1 AB4       0.479000
     39 H27         -1.9300     0.2170     1.7170 ha         1 AB4       0.124000
     40 H29         -2.7490     1.4690     3.6780 ha         1 AB4       0.116000
     41 H30         -5.1040     2.2770     3.7620 ha         1 AB4       0.117000
     42 H28         -6.6420     1.8270     1.8650 ha         1 AB4       0.113000
     43 H17         -7.0650     0.8690    -0.3320 ha         1 AB4       0.118000
     44 H16         -6.2890    -0.3750    -2.3210 ha         1 AB4       0.119000
     45 H26         -4.6400    -1.4050    -3.2970 ho         1 AB4       0.469000
@<TRIPOS>BOND
     1     1     2 1   
     2     2     3 ar  
     3     2     8 ar  
     4     3     4 ar  
     5     3    31 1   
     6     4     5 ar  
     7     4    32 1   
     8     5     6 1   
     9     5     7 ar  
    10     7     8 ar  
    11     7    33 1   
    12     8     9 1   
    13     9    10 2   
    14     9    11 2   
    15     9    12 1   
    16    12    13 1   
    17    12    34 1   
    18    13    14 ar  
    19    13    15 ar  
    20    14    19 ar  
    21    14    35 1   
    22    15    16 ar  
    23    15    36 1   
    24    16    17 ar  
    25    16    37 1   
    26    17    18 1   
    27    17    19 ar  
    28    18    38 1   
    29    19    20 1   
    30    20    21 ar  
    31    20    29 ar  
    32    21    22 ar  
    33    21    26 ar  
    34    22    23 ar  
    35    22    39 1   
    36    23    24 ar  
    37    23    40 1   
    38    24    25 ar  
    39    24    41 1   
    40    25    26 ar  
    41    25    42 1   
    42    26    27 ar  
    43    27    28 ar  
    44    27    43 1   
    45    28    29 ar  
    46    28    44 1   
    47    29    30 1   
    48    30    45 1   
@<TRIPOS>SUBSTRUCTURE
     1 AB4         1 TEMP              0 ****  ****    0 ROOT
