@<TRIPOS>MOLECULE
AB4
   45    48     1     0     0
SMALL
bcc


@<TRIPOS>ATOM
      1 CL22         4.1340     2.6690     0.6380 cl         1 AB4      -0.062400
      2 C10          4.1760     0.9750     0.3460 ca         1 AB4       0.114400
      3 C19          5.0960     0.2120     1.0470 ca         1 AB4      -0.142000
      4 C23          5.1570    -1.1590     0.8600 ca         1 AB4      -0.066000
      5 C20          4.2870    -1.7640    -0.0310 ca         1 AB4       0.001400
      6 CL24         4.3510    -3.4730    -0.2650 cl         1 AB4      -0.091400
      7 C7           3.3610    -1.0180    -0.7390 ca         1 AB4      -0.020000
      8 C2           3.3060     0.3550    -0.5480 ca         1 AB4      -0.249500
      9 S1           2.1050     1.2710    -1.4930 sy         1 AB4       1.299200
     10 O8           2.7360     2.4190    -2.1160 o          1 AB4      -0.605300
     11 O9           1.4160     0.3060    -2.3330 o          1 AB4      -0.605300
     12 N5           1.1250     1.8520    -0.2980 nu         1 AB4      -0.711500
     13 C14          0.2200     0.9480     0.3260 ca         1 AB4       0.045600
     14 C12         -1.0370     0.6990    -0.2070 ca         1 AB4      -0.061000
     15 C21          0.6100     0.3030     1.4930 ca         1 AB4      -0.067000
     16 C18         -0.2440    -0.5890     2.1160 ca         1 AB4      -0.170000
     17 C11         -1.5070    -0.8310     1.5820 ca         1 AB4       0.169100
     18 O25         -2.3020    -1.7000     2.2290 oh         1 AB4      -0.492100
     19 C3          -1.9190    -0.1720     0.4170 cp         1 AB4      -0.101000
     20 C4          -3.2680    -0.4240    -0.1410 cp         1 AB4      -0.117000
     21 C6          -4.4230     0.1710     0.4420 ca         1 AB4       0.010000
     22 C27         -4.3440     1.0240     1.5700 ca         1 AB4      -0.131000
     23 C29         -5.4730     1.5740     2.1150 ca         1 AB4      -0.108000
     24 C30         -6.7440     1.3060     1.5670 ca         1 AB4      -0.135000
     25 C28         -6.8520     0.4910     0.4740 ca         1 AB4      -0.103000
     26 C15         -5.7050    -0.0910    -0.1110 ca         1 AB4      -0.076000
     27 C17         -5.7990    -0.9300    -1.2440 ca         1 AB4      -0.062000
     28 C16         -4.6870    -1.4900    -1.8000 ca         1 AB4      -0.214000
     29 C13         -3.4100    -1.2400    -1.2450 ca         1 AB4       0.166100
     30 O26         -2.3070    -1.7930    -1.7740 oh         1 AB4      -0.474100
     31 H19          5.7710     0.6890     1.7440 ha         1 AB4       0.154000
     32 H23          5.8800    -1.7440     1.4110 ha         1 AB4       0.154000
     33 H7           2.6840    -1.5020    -1.4280 ha         1 AB4       0.182000
     34 H5           0.7780     2.7820    -0.5120 hn         1 AB4       0.446800
     35 H12         -1.3450     1.2000    -1.1160 ha         1 AB4       0.143000
     36 H21          1.5840     0.5040     1.9190 ha         1 AB4       0.145000
     37 H18          0.0620    -1.0960     3.0220 ha         1 AB4       0.152000
     38 H25         -3.1330    -1.8170     1.7500 ho         1 AB4       0.440000
     39 H27         -3.3780     1.2550     1.9990 ha         1 AB4       0.142000
     40 H29         -5.3900     2.2250     2.9760 ha         1 AB4       0.134000
     41 H30         -7.6270     1.7470     2.0100 ha         1 AB4       0.135000
     42 H28         -7.8220     0.2820     0.0380 ha         1 AB4       0.131000
     43 H17         -6.7730    -1.1290    -1.6730 ha         1 AB4       0.136000
     44 H16         -4.7770    -2.1330    -2.6670 ha         1 AB4       0.137000
     45 H26         -2.5330    -2.3240    -2.5460 ho         1 AB4       0.430000
@<TRIPOS>BOND
     1     1     2 1   
     2     2     3 ar  
     3     2     8 ar  
     4     3     4 ar  
     5     3    31 1   
     6     4     5 ar  
     7     4    32 1   
     8     5     6 1   
     9     5     7 ar  
    10     7     8 ar  
    11     7    33 1   
    12     8     9 1   
    13     9    10 2   
    14     9    11 2   
    15     9    12 1   
    16    12    13 1   
    17    12    34 1   
    18    13    14 ar  
    19    13    15 ar  
    20    14    19 ar  
    21    14    35 1   
    22    15    16 ar  
    23    15    36 1   
    24    16    17 ar  
    25    16    37 1   
    26    17    18 1   
    27    17    19 ar  
    28    18    38 1   
    29    19    20 1   
    30    20    21 ar  
    31    20    29 ar  
    32    21    22 ar  
    33    21    26 ar  
    34    22    23 ar  
    35    22    39 1   
    36    23    24 ar  
    37    23    40 1   
    38    24    25 ar  
    39    24    41 1   
    40    25    26 ar  
    41    25    42 1   
    42    26    27 ar  
    43    27    28 ar  
    44    27    43 1   
    45    28    29 ar  
    46    28    44 1   
    47    29    30 1   
    48    30    45 1   
@<TRIPOS>SUBSTRUCTURE
     1 AB4         1 TEMP              0 ****  ****    0 ROOT
