@<TRIPOS>MOLECULE
AB6
   80    81     1     0     0
SMALL
abcg2


@<TRIPOS>ATOM
      1 C11         -4.2220    -0.3140     1.0770 c6         1 AB6       0.399300
      2 C12          0.7040     1.6170     0.2620 c6         1 AB6       0.098700
      3 C21         -4.6740    -1.7570     0.8320 c6         1 AB6       0.132500
      4 C22         -0.4250     2.4740     0.8210 c6         1 AB6      -0.094400
      5 C23          2.9750     2.4430    -0.1970 c          1 AB6       0.576100
      6 C24          4.3340     2.7360     0.4350 c3         1 AB6       0.098300
      7 C25          4.9470     1.3880     0.8210 c3         1 AB6      -0.116400
      8 C26          6.3880     1.4660     1.2950 c3         1 AB6       0.156800
      9 C29          2.1840    -1.4650     1.1850 c3         1 AB6       0.169600
     10 C30          3.0820    -2.4910     0.5290 c3         1 AB6       0.162800
     11 C31         -5.2440    -1.8810    -0.5730 c6         1 AB6       0.167300
     12 C32         -1.7900     1.9750     0.3650 c6         1 AB6       0.156500
     13 C33          6.3380    -2.2670    -1.3360 c3         1 AB6      -0.088400
     14 C34          7.3500    -3.2900    -1.8270 c3         1 AB6       0.150800
     15 O11         -3.1560    -0.0150     0.2350 os         1 AB6      -0.494000
     16 N21         -3.5530    -2.6640     1.0350 n8         1 AB6      -1.000200
     17 O31         -5.7270    -3.1950    -0.7290 oh         1 AB6      -0.672000
     18 C41         -6.3550    -0.8520    -0.7680 c6         1 AB6       0.107300
     19 O41         -6.7800    -0.9360    -2.1120 oh         1 AB6      -0.720000
     20 C51         -5.8320     0.5490    -0.4390 c6         1 AB6       0.140300
     21 O51         -5.2850     0.5680     0.8710 os         1 AB6      -0.451000
     22 C61         -6.9110     1.6070    -0.4830 c3         1 AB6       0.169600
     23 O61         -6.3060     2.8680    -0.3170 oh         1 AB6      -0.712000
     24 N12          1.9920     2.1360     0.6560 ns         1 AB6      -0.486900
     25 N32         -2.8250     2.7870     0.9820 n8         1 AB6      -1.013200
     26 C42         -1.9570     0.5150     0.7720 c6         1 AB6       0.149300
     27 C52         -0.8170    -0.3690     0.2580 c6         1 AB6       0.165300
     28 O52         -0.9410    -1.6890     0.7010 oh         1 AB6      -0.760000
     29 C62          0.5340     0.1690     0.7250 c6         1 AB6       0.158300
     30 O62          1.5840    -0.6220     0.2240 os         1 AB6      -0.422000
     31 N31          4.2380    -1.9150    -0.1230 n7         1 AB6      -0.852400
     32 C35          5.1440    -2.9150    -0.6520 c3         1 AB6       0.165800
     33 N35          8.4480    -2.6390    -2.5290 n8         1 AB6      -0.992200
     34 O36          2.8600     2.4470    -1.4160 o          1 AB6      -0.598100
     35 N27          6.8320     0.1410     1.7030 n8         1 AB6      -1.008200
     36 O28          5.1290     3.4660    -0.4560 oh         1 AB6      -0.650000
     37 H11         -3.9340    -0.1890     2.1280 h2         1 AB6       0.078700
     38 H12          0.6680     1.6480    -0.8290 h1         1 AB6       0.101700
     39 H21         -5.4890    -1.9570     1.5420 h1         1 AB6       0.047700
     40 H221        -0.2870     3.5090     0.5010 hc         1 AB6       0.055200
     41 H222        -0.3870     2.4720     1.9160 hc         1 AB6       0.055200
     42 H24          4.2090     3.3490     1.3350 h1         1 AB6       0.067700
     43 H251         4.3360     0.9520     1.6170 hc         1 AB6       0.061700
     44 H252         4.8830     0.7030    -0.0290 hc         1 AB6       0.061700
     45 H261         7.0240     1.8040     0.4760 h1         1 AB6       0.037200
     46 H262         6.4730     2.2210     2.0900 h1         1 AB6       0.037200
     47 H291         1.4260    -2.0070     1.7580 h1         1 AB6       0.020200
     48 H292         2.7650    -0.8730     1.9070 h1         1 AB6       0.020200
     49 H301         2.5020    -3.0550    -0.2100 h1         1 AB6       0.036200
     50 H302         3.3540    -3.2140     1.3160 h1         1 AB6       0.036200
     51 H3          -4.4470    -1.6760    -1.3040 h1         1 AB6       0.077700
     52 H32         -1.8130     2.0190    -0.7370 h1         1 AB6       0.036700
     53 H331         6.8220    -1.5810    -0.6320 hc         1 AB6       0.061700
     54 H332         5.9910    -1.6640    -2.1800 hc         1 AB6       0.061700
     55 H341         6.8590    -3.9760    -2.5230 h1         1 AB6       0.022700
     56 H342         7.6790    -3.9010    -0.9740 h1         1 AB6       0.022700
     57 H211        -3.4300    -2.8280     2.0270 hn         1 AB6       0.416000
     58 H212        -3.7690    -3.5700     0.6380 hn         1 AB6       0.416000
     59 H4          -6.0110    -3.3020    -1.6430 ho         1 AB6       0.464000
     60 H41         -7.1760    -1.0990    -0.0790 h1         1 AB6       0.049700
     61 H2          -7.7260    -0.7730    -2.1560 ho         1 AB6       0.510000
     62 H51         -5.0640     0.8120    -1.1790 h1         1 AB6       0.079700
     63 H611        -7.4310     1.5380    -1.4460 h1         1 AB6       0.025700
     64 H612        -7.6520     1.4020     0.3020 h1         1 AB6       0.025700
     65 H61         -6.9890     3.5410    -0.3840 ho         1 AB6       0.506000
     66 H5           2.1840     2.1960     1.6460 hn         1 AB6       0.307500
     67 H321        -2.6960     3.7530     0.7050 hn         1 AB6       0.412000
     68 H322        -3.7400     2.5250     0.6360 hn         1 AB6       0.412000
     69 H42         -1.9840     0.4630     1.8710 h1         1 AB6       0.053700
     70 H52         -0.8330    -0.3160    -0.8460 h1         1 AB6       0.054700
     71 H1          -1.8800    -1.9910     0.6480 ho         1 AB6       0.557000
     72 H62          0.5440     0.1630     1.8270 h1         1 AB6       0.033700
     73 H31          4.7530    -1.3490     0.5430 hn         1 AB6       0.413000
     74 H11A         4.5980    -3.5300    -1.3760 h1         1 AB6       0.021200
     75 H12A         5.5000    -3.6110     0.1270 h1         1 AB6       0.021200
     76 H351         8.9580    -2.0560    -1.8770 hn         1 AB6       0.388500
     77 H352         9.1100    -3.3390    -2.8370 hn         1 AB6       0.388500
     78 H271         7.8210     0.1600     1.9120 hn         1 AB6       0.391000
     79 H272         6.3710    -0.1190     2.5660 hn         1 AB6       0.391000
     80 H28          4.9130     3.1610    -1.3470 ho         1 AB6       0.473000
@<TRIPOS>BOND
     1     1     3 1   
     2     1    15 1   
     3     1    21 1   
     4     1    37 1   
     5     2     4 1   
     6     2    24 1   
     7     2    29 1   
     8     2    38 1   
     9     3    11 1   
    10     3    16 1   
    11     3    39 1   
    12     4    12 1   
    13     4    40 1   
    14     4    41 1   
    15     5     6 1   
    16     5    24 1   
    17     5    34 2   
    18     6     7 1   
    19     6    36 1   
    20     6    42 1   
    21     7     8 1   
    22     7    43 1   
    23     7    44 1   
    24     8    35 1   
    25     8    45 1   
    26     8    46 1   
    27     9    10 1   
    28     9    30 1   
    29     9    47 1   
    30     9    48 1   
    31    10    31 1   
    32    10    49 1   
    33    10    50 1   
    34    11    17 1   
    35    11    18 1   
    36    11    51 1   
    37    12    25 1   
    38    12    26 1   
    39    12    52 1   
    40    13    14 1   
    41    13    32 1   
    42    13    53 1   
    43    13    54 1   
    44    14    33 1   
    45    14    55 1   
    46    14    56 1   
    47    15    26 1   
    48    16    57 1   
    49    16    58 1   
    50    17    59 1   
    51    18    19 1   
    52    18    20 1   
    53    18    60 1   
    54    19    61 1   
    55    20    21 1   
    56    20    22 1   
    57    20    62 1   
    58    22    23 1   
    59    22    63 1   
    60    22    64 1   
    61    23    65 1   
    62    24    66 1   
    63    25    67 1   
    64    25    68 1   
    65    26    27 1   
    66    26    69 1   
    67    27    28 1   
    68    27    29 1   
    69    27    70 1   
    70    28    71 1   
    71    29    30 1   
    72    29    72 1   
    73    31    32 1   
    74    31    73 1   
    75    32    74 1   
    76    32    75 1   
    77    33    76 1   
    78    33    77 1   
    79    35    78 1   
    80    35    79 1   
    81    36    80 1   
@<TRIPOS>SUBSTRUCTURE
     1 AB6         1 TEMP              0 ****  ****    0 ROOT
