@<TRIPOS>MOLECULE
AB6
   80    81     1     0     0
SMALL
No Charge or Current Charge


@<TRIPOS>ATOM
      1 C11         -4.3590     0.4430     0.9780 c6         1 AB6       0.399300
      2 C12          0.8500     1.6650     0.0710 c6         1 AB6       0.098700
      3 C21         -4.5290    -1.0540     1.4370 c6         1 AB6       0.132500
      4 C22         -0.1910     2.6180     0.7140 c6         1 AB6      -0.094400
      5 C23          3.3590     2.0280    -0.1270 c          1 AB6       0.576100
      6 C24          4.6500     2.3300     0.7000 c3         1 AB6       0.098300
      7 C25          5.3640     1.0250     1.1300 c3         1 AB6      -0.116400
      8 C26          6.5210     1.2580     2.1230 c3         1 AB6       0.156800
      9 C29          1.7090    -1.9850     0.3390 c3         1 AB6       0.169600
     10 C30          2.7490    -2.7760    -0.5040 c3         1 AB6       0.162800
     11 C31         -5.1670    -1.8800     0.2770 c6         1 AB6       0.167300
     12 C32         -1.6160     2.3410     0.1840 c6         1 AB6       0.156500
     13 C33          6.4490    -2.1070    -1.2860 c3         1 AB6      -0.088400
     14 C34          7.5470    -2.8340    -2.0860 c3         1 AB6       0.150800
     15 O11         -3.3510     0.5740    -0.0480 os         1 AB6      -0.494000
     16 N21         -3.2660    -1.7160     1.9210 n8         1 AB6      -1.000200
     17 O31         -5.4270    -3.2370     0.6850 oh         1 AB6      -0.672000
     18 C41         -6.4860    -1.2150    -0.2180 c6         1 AB6       0.107300
     19 O41         -7.0430    -1.9910    -1.3040 oh         1 AB6      -0.720000
     20 C51         -6.1870     0.2610    -0.6360 c6         1 AB6       0.140300
     21 O51         -5.6030     0.9830     0.4830 os         1 AB6      -0.451000
     22 C61         -7.4690     1.0330    -1.0950 c3         1 AB6       0.169600
     23 O61         -7.2200     2.4140    -1.4230 oh         1 AB6      -0.712000
     24 N12          2.1880     1.9840     0.6050 ns         1 AB6      -0.486900
     25 N32         -2.5810     3.2810     0.8020 n8         1 AB6      -1.013200
     26 C42         -2.0080     0.8500     0.4300 c6         1 AB6       0.149300
     27 C52         -0.9810    -0.1300    -0.2150 c6         1 AB6       0.165300
     28 O52         -1.3980    -1.5010    -0.0110 oh         1 AB6      -0.760000
     29 C62          0.4700     0.1680     0.3240 c6         1 AB6       0.158300
     30 O62          1.4780    -0.6950    -0.2700 os         1 AB6      -0.422000
     31 N31          4.1000    -2.1560    -0.5070 n7         1 AB6      -0.852400
     32 C35          5.1180    -2.8810    -1.2850 c3         1 AB6       0.165800
     33 N35          8.8110    -2.0750    -2.0930 n8         1 AB6      -0.992200
     34 O36          3.3710     1.9160    -1.3480 o          1 AB6      -0.598100
     35 N27          7.1120    -0.0190     2.5670 n8         1 AB6      -1.008200
     36 O28          5.5760     3.1630    -0.0390 oh         1 AB6      -0.650000
     37 H11         -4.0640     1.0400     1.8540 h2         1 AB6       0.078700
     38 H12          0.8530     1.8390    -1.0160 h1         1 AB6       0.101700
     39 H21         -5.2360    -1.0690     2.2800 h1         1 AB6       0.047700
     40 H221         0.0870     3.6590     0.4990 hc         1 AB6       0.055200
     41 H222        -0.1720     2.5080     1.8080 hc         1 AB6       0.055200
     42 H24          4.3290     2.8570     1.6090 h1         1 AB6       0.067700
     43 H251         4.6250     0.3610     1.5960 hc         1 AB6       0.061700
     44 H252         5.7410     0.5050     0.2410 hc         1 AB6       0.061700
     45 H261         7.3050     1.8620     1.6460 h1         1 AB6       0.037200
     46 H262         6.1510     1.8020     3.0030 h1         1 AB6       0.037200
     47 H291         0.7890    -2.5780     0.3810 h1         1 AB6       0.020200
     48 H292         2.0810    -1.8670     1.3650 h1         1 AB6       0.020200
     49 H301         2.3690    -2.8640    -1.5310 h1         1 AB6       0.036200
     50 H302         2.8100    -3.7940    -0.0950 h1         1 AB6       0.036200
     51 H3          -4.4580    -1.8780    -0.5660 h1         1 AB6       0.077700
     52 H32         -1.6350     2.5260    -0.9010 h1         1 AB6       0.036700
     53 H331         6.7860    -1.9630    -0.2520 hc         1 AB6       0.061700
     54 H332         6.2850    -1.1120    -1.7180 hc         1 AB6       0.061700
     55 H341         7.2170    -2.9740    -3.1250 h1         1 AB6       0.022700
     56 H342         7.7340    -3.8220    -1.6440 h1         1 AB6       0.022700
     57 H211        -3.1320    -1.4770     2.9140 hn         1 AB6       0.416000
     58 H212        -3.4770    -2.7260     1.9710 hn         1 AB6       0.416000
     59 H4          -6.0530    -3.5800     0.0070 ho         1 AB6       0.464000
     60 H41         -7.1950    -1.1940     0.6250 h1         1 AB6       0.049700
     61 H2          -8.0150    -1.8240    -1.3270 ho         1 AB6       0.510000
     62 H51         -5.4750     0.2640    -1.4750 h1         1 AB6       0.079700
     63 H611        -7.8890     0.5180    -1.9690 h1         1 AB6       0.025700
     64 H612        -8.2140     0.9690    -0.2900 h1         1 AB6       0.025700
     65 H61         -8.0930     2.8230    -1.6280 ho         1 AB6       0.506000
     66 H5           2.2790     2.1180     1.6050 hn         1 AB6       0.307500
     67 H321        -2.4190     4.2210     0.4220 hn         1 AB6       0.412000
     68 H322        -3.5160     3.0420     0.4490 hn         1 AB6       0.412000
     69 H42         -1.9720     0.6780     1.5170 h1         1 AB6       0.053700
     70 H52         -0.9690     0.0790    -1.2950 h1         1 AB6       0.054700
     71 H1          -2.1340    -1.4830     0.6780 ho         1 AB6       0.557000
     72 H62          0.4800     0.0040     1.4120 h1         1 AB6       0.033700
     73 H31          4.4260    -2.0850     0.4640 hn         1 AB6       0.413000
     74 H11A         4.7810    -3.0080    -2.3230 h1         1 AB6       0.021200
     75 H12A         5.2810    -3.8800    -0.8600 h1         1 AB6       0.021200
     76 H351         9.1640    -2.0050    -1.1320 hn         1 AB6       0.388500
     77 H352         9.5300    -2.6290    -2.5750 hn         1 AB6       0.388500
     78 H271         7.8490     0.1770     3.2560 hn         1 AB6       0.391000
     79 H272         6.4120    -0.5410     3.1070 hn         1 AB6       0.391000
     80 H28          5.4840     2.9110    -0.9870 ho         1 AB6       0.473000
@<TRIPOS>BOND
     1     1     3 1   
     2     1    15 1   
     3     1    21 1   
     4     1    37 1   
     5     2     4 1   
     6     2    24 1   
     7     2    29 1   
     8     2    38 1   
     9     3    11 1   
    10     3    16 1   
    11     3    39 1   
    12     4    12 1   
    13     4    40 1   
    14     4    41 1   
    15     5     6 1   
    16     5    24 1   
    17     5    34 2   
    18     6     7 1   
    19     6    36 1   
    20     6    42 1   
    21     7     8 1   
    22     7    43 1   
    23     7    44 1   
    24     8    35 1   
    25     8    45 1   
    26     8    46 1   
    27     9    10 1   
    28     9    30 1   
    29     9    47 1   
    30     9    48 1   
    31    10    31 1   
    32    10    49 1   
    33    10    50 1   
    34    11    17 1   
    35    11    18 1   
    36    11    51 1   
    37    12    25 1   
    38    12    26 1   
    39    12    52 1   
    40    13    14 1   
    41    13    32 1   
    42    13    53 1   
    43    13    54 1   
    44    14    33 1   
    45    14    55 1   
    46    14    56 1   
    47    15    26 1   
    48    16    57 1   
    49    16    58 1   
    50    17    59 1   
    51    18    19 1   
    52    18    20 1   
    53    18    60 1   
    54    19    61 1   
    55    20    21 1   
    56    20    22 1   
    57    20    62 1   
    58    22    23 1   
    59    22    63 1   
    60    22    64 1   
    61    23    65 1   
    62    24    66 1   
    63    25    67 1   
    64    25    68 1   
    65    26    27 1   
    66    26    69 1   
    67    27    28 1   
    68    27    29 1   
    69    27    70 1   
    70    28    71 1   
    71    29    30 1   
    72    29    72 1   
    73    31    32 1   
    74    31    73 1   
    75    32    74 1   
    76    32    75 1   
    77    33    76 1   
    78    33    77 1   
    79    35    78 1   
    80    35    79 1   
    81    36    80 1   
@<TRIPOS>SUBSTRUCTURE
     1 AB6         1 TEMP              0 ****  ****    0 ROOT
