@<TRIPOS>MOLECULE
AB7
   15    14     1     0     0
SMALL
No Charge or Current Charge


@<TRIPOS>ATOM
      1 N            1.8980    -0.6030    -1.1250 n8         1 AB7      -1.000200
      2 CA           2.1710    -1.2240    -2.4730 c3         1 AB7       0.013500
      3 C            1.6610    -0.4250    -3.7470 c          1 AB7       0.692000
      4 O            0.7060     0.3330    -3.6220 o          1 AB7      -0.739000
      5 CB           1.6870    -2.7010    -2.5050 c3         1 AB7      -0.040400
      6 CG           0.1560    -2.8920    -2.4170 c3         1 AB7      -0.078100
      7 OXT          2.3210    -0.4960    -4.7750 o          1 AB7      -0.739000
      8 HN1          0.8860    -0.4440    -1.0510 hn         1 AB7       0.379500
      9 HN2          2.2780     0.3520    -1.1190 hn         1 AB7       0.379500
     10 HA           3.2660    -1.2570    -2.5660 h1         1 AB7       0.030700
     11 HBC1         2.1600    -3.2540    -1.6840 hc         1 AB7       0.021200
     12 HBC2         2.0440    -3.1680    -3.4320 hc         1 AB7       0.021200
     13 HGC1        -0.2420    -2.4740    -1.4850 hc         1 AB7       0.019367
     14 HGC2        -0.0930    -3.9600    -2.4420 hc         1 AB7       0.019367
     15 HGC3        -0.3490    -2.4070    -3.2600 hc         1 AB7       0.019367
@<TRIPOS>BOND
     1     1     2 1   
     2     1     8 1   
     3     1     9 1   
     4     2     3 1   
     5     2     5 1   
     6     2    10 1   
     7     3     4 1   
     8     3     7 1   
     9     5     6 1   
    10     5    11 1   
    11     5    12 1   
    12     6    13 1   
    13     6    14 1   
    14     6    15 1   
@<TRIPOS>SUBSTRUCTURE
     1 AB7         1 TEMP              0 ****  ****    0 ROOT
