@<TRIPOS>MOLECULE
AB7
   15    14     1     0     0
SMALL
bcc


@<TRIPOS>ATOM
      1 N            1.7920    -0.6370    -1.1630 n8         1 AB7      -0.889800
      2 CA           2.1630    -1.2120    -2.4500 c3         1 AB7       0.013500
      3 C            1.6430    -0.4460    -3.6910 c          1 AB7       0.902600
      4 O            0.7380     0.3950    -3.5140 o          1 AB7      -0.844300
      5 CB           1.7130    -2.6760    -2.5260 c3         1 AB7      -0.040400
      6 CG           0.2040    -2.8670    -2.4300 c3         1 AB7      -0.078100
      7 OXT          2.1600    -0.7590    -4.7840 o          1 AB7      -0.844300
      8 HN1          0.8400    -0.2980    -1.2420 hn         1 AB7       0.324300
      9 HN2          2.3390     0.2030    -1.0150 hn         1 AB7       0.324300
     10 HA           3.2570    -1.2160    -2.5030 h1         1 AB7       0.030700
     11 HBC1         2.1950    -3.2300    -1.7160 hc         1 AB7       0.021200
     12 HBC2         2.0780    -3.1080    -3.4600 hc         1 AB7       0.021200
     13 HGC1        -0.1890    -2.4850    -1.4860 hc         1 AB7       0.019367
     14 HGC2        -0.0590    -3.9250    -2.4840 hc         1 AB7       0.019367
     15 HGC3        -0.3240    -2.3600    -3.2390 hc         1 AB7       0.019367
@<TRIPOS>BOND
     1     1     2 1   
     2     1     8 1   
     3     1     9 1   
     4     2     3 1   
     5     2     5 1   
     6     2    10 1   
     7     3     4 1   
     8     3     7 1   
     9     5     6 1   
    10     5    11 1   
    11     5    12 1   
    12     6    13 1   
    13     6    14 1   
    14     6    15 1   
@<TRIPOS>SUBSTRUCTURE
     1 AB7         1 TEMP              0 ****  ****    0 ROOT
