@<TRIPOS>MOLECULE
AB8
   91    94     1     0     0
SMALL
No Charge or Current Charge


@<TRIPOS>ATOM
      1 C88         52.0340    28.7900    15.0320 c3         1 AB8       0.141900
      2 O87         52.7180    27.5230    15.0530 os         1 AB8      -0.331100
      3 C79         52.2140    26.4150    15.7160 ca         1 AB8       0.107100
      4 C80         52.9580    25.2100    15.6980 ca         1 AB8       0.108100
      5 O85         54.1560    25.1330    15.0370 oh         1 AB8      -0.520100
      6 C81         52.4700    24.0720    16.3620 ca         1 AB8      -0.169000
      7 C83         51.2460    24.1240    17.0480 ca         1 AB8      -0.086000
      8 C77         50.9800    26.4580    16.4090 ca         1 AB8      -0.158000
      9 C76         50.4970    25.3160    17.0790 ca         1 AB8      -0.128300
     10 C73         49.1720    25.3640    17.8340 c3         1 AB8       0.158300
     11 N1          49.2880    24.9260    19.2520 n          1 AB8      -0.455800
     12 C2          50.2430    25.6680    20.1340 c6         1 AB8       0.129700
     13 C62         50.1380    27.2190    20.0140 c3         1 AB8      -0.169400
     14 C65         51.1310    27.9570    20.9110 c          1 AB8       0.589100
     15 N67         50.5760    28.6410    21.9680 ns         1 AB8      -0.505900
     16 C69         51.3460    29.4130    22.9460 c3         1 AB8       0.095300
     17 O66         52.3340    27.9630    20.6930 o          1 AB8      -0.617100
     18 C4          50.1180    25.2130    21.5990 c6         1 AB8      -0.121400
     19 C7          50.0520    23.6910    21.6280 c6         1 AB8       0.176300
     20 O9          48.8950    23.2660    20.9000 os         1 AB8      -0.442100
     21 C10         48.5800    23.7620    19.6610 c          1 AB8       0.710100
     22 O11         47.7330    23.2200    18.9670 o          1 AB8      -0.548000
     23 C12         49.9470    23.1160    23.0660 c3         1 AB8      -0.067400
     24 C15         49.9560    21.5680    23.1360 c3         1 AB8      -0.070400
     25 C18         50.0720    20.9600    24.5780 c6         1 AB8      -0.045700
     26 C20         50.1870    19.3930    24.5910 c6         1 AB8      -0.013500
     27 C31         50.3820    18.8580    26.0320 ce         1 AB8      -0.077200
     28 C32         49.7270    19.6240    27.1040 ce         1 AB8      -0.176000
     29 C34         49.0760    20.7890    26.9070 c2         1 AB8      -0.209200
     30 C36         48.9310    21.4350    25.5400 c6         1 AB8      -0.028500
     31 C38         47.4870    21.1640    25.0250 c3         1 AB8      -0.084100
     32 C29         51.0690    17.7220    26.3000 c2         1 AB8      -0.197200
     33 C27         51.7980    16.8850    25.2560 c6         1 AB8      -0.020500
     34 C42         53.3250    16.9470    25.5380 c3         1 AB8      -0.083100
     35 C24         51.4250    17.3030    23.8080 c6         1 AB8      -0.090400
     36 C22         51.2870    18.8390    23.6320 c6         1 AB8       0.180300
     37 O46         52.5400    19.5270    23.8370 os         1 AB8      -0.446100
     38 C47         53.5470    19.4600    22.9130 c          1 AB8       0.589100
     39 O48         53.4590    18.8880    21.8340 o          1 AB8      -0.501000
     40 C49         54.7730    20.2860    23.3510 c3         1 AB8      -0.121700
     41 C58         56.0280    19.3890    23.4670 c3         1 AB8      -0.085100
     42 C51         55.0130    21.5100    22.4260 c3         1 AB8      -0.063400
     43 C54         53.8020    22.4600    22.3140 c3         1 AB8      -0.096100
     44 H881        51.9080    29.1810    16.0490 h1         1 AB8       0.044700
     45 H882        52.6110    29.5230    14.4550 h1         1 AB8       0.044700
     46 H883        51.0460    28.6930    14.5650 h1         1 AB8       0.044700
     47 H85         54.5120    24.2250    15.1370 ho         1 AB8       0.459000
     48 H81         53.0350    23.1430    16.3520 ha         1 AB8       0.125000
     49 H83         50.8780    23.2360    17.5590 ha         1 AB8       0.132000
     50 H77         50.3890    27.3680    16.4360 ha         1 AB8       0.122000
     51 H731        48.4550    24.7380    17.2880 h1         1 AB8       0.069700
     52 H732        48.7600    26.3810    17.8090 h1         1 AB8       0.069700
     53 H2          51.2560    25.3950    19.8000 h1         1 AB8       0.077700
     54 H621        49.1160    27.5290    20.2610 hc         1 AB8       0.069700
     55 H622        50.3620    27.5260    18.9880 hc         1 AB8       0.069700
     56 H67         49.5690    28.5950    22.0690 hn         1 AB8       0.317500
     57 H691        51.8910    30.2180    22.4350 h1         1 AB8       0.043700
     58 H692        50.6640    29.8510    23.6860 h1         1 AB8       0.043700
     59 H693        52.0600    28.7550    23.4570 h1         1 AB8       0.043700
     60 H41         49.2140    25.6360    22.0590 hc         1 AB8       0.067200
     61 H42         50.9770    25.5600    22.1890 hc         1 AB8       0.067200
     62 H7          50.9480    23.2780    21.1410 h1         1 AB8       0.058700
     63 H121        49.0370    23.4990    23.5430 hc         1 AB8       0.052700
     64 H122        50.7890    23.4920    23.6620 hc         1 AB8       0.052700
     65 H151        50.8040    21.2370    22.5280 hc         1 AB8       0.052700
     66 H152        49.0640    21.1790    22.6300 hc         1 AB8       0.052700
     67 H18         51.0140    21.3560    24.9830 hc         1 AB8       0.059700
     68 H20         49.2340    18.9850    24.2290 hc         1 AB8       0.064700
     69 H32         49.8000    19.2130    28.1130 ha         1 AB8       0.174000
     70 H34         48.6180    21.3180    27.7460 ha         1 AB8       0.173000
     71 H36         49.0120    22.5220    25.6780 hc         1 AB8       0.047700
     72 H381        47.3010    20.0950    24.8730 hc         1 AB8       0.036700
     73 H382        46.7440    21.5240    25.7470 hc         1 AB8       0.036700
     74 H383        47.2870    21.6800    24.0800 hc         1 AB8       0.036700
     75 H29         51.1570    17.3670    27.3280 ha         1 AB8       0.172000
     76 H27         51.5120    15.8320    25.3900 hc         1 AB8       0.050700
     77 H421        53.5600    16.5020    26.5120 hc         1 AB8       0.036700
     78 H422        53.8930    16.3960    24.7790 hc         1 AB8       0.036700
     79 H423        53.6970    17.9780    25.5550 hc         1 AB8       0.036700
     80 H241        50.4620    16.8420    23.5490 hc         1 AB8       0.057200
     81 H242        52.1460    16.8900    23.0910 hc         1 AB8       0.057200
     82 H22         50.9600    19.0270    22.5990 h1         1 AB8       0.071700
     83 H49         54.5620    20.6720    24.3560 hc         1 AB8       0.073700
     84 H581        56.3020    18.9700    22.4910 hc         1 AB8       0.044033
     85 H582        56.8820    19.9630    23.8470 hc         1 AB8       0.044033
     86 H583        55.8450    18.5560    24.1570 hc         1 AB8       0.044033
     87 H511        55.2860    21.1620    21.4220 hc         1 AB8       0.049700
     88 H512        55.8700    22.0800    22.8050 hc         1 AB8       0.049700
     89 H541        53.4660    22.7860    23.3060 hc         1 AB8       0.037367
     90 H542        54.0690    23.3510    21.7330 hc         1 AB8       0.037367
     91 H543        52.9650    21.9670    21.8060 hc         1 AB8       0.037367
@<TRIPOS>BOND
     1     1     2 1   
     2     1    44 1   
     3     1    45 1   
     4     1    46 1   
     5     2     3 1   
     6     3     4 ar  
     7     3     8 ar  
     8     4     5 1   
     9     4     6 ar  
    10     5    47 1   
    11     6     7 ar  
    12     6    48 1   
    13     7     9 ar  
    14     7    49 1   
    15     8     9 ar  
    16     8    50 1   
    17     9    10 1   
    18    10    11 1   
    19    10    51 1   
    20    10    52 1   
    21    11    12 1   
    22    11    21 1   
    23    12    13 1   
    24    12    18 1   
    25    12    53 1   
    26    13    14 1   
    27    13    54 1   
    28    13    55 1   
    29    14    15 1   
    30    14    17 2   
    31    15    16 1   
    32    15    56 1   
    33    16    57 1   
    34    16    58 1   
    35    16    59 1   
    36    18    19 1   
    37    18    60 1   
    38    18    61 1   
    39    19    20 1   
    40    19    23 1   
    41    19    62 1   
    42    20    21 1   
    43    21    22 2   
    44    23    24 1   
    45    23    63 1   
    46    23    64 1   
    47    24    25 1   
    48    24    65 1   
    49    24    66 1   
    50    25    26 1   
    51    25    30 1   
    52    25    67 1   
    53    26    27 1   
    54    26    36 1   
    55    26    68 1   
    56    27    28 1   
    57    27    32 2   
    58    28    29 2   
    59    28    69 1   
    60    29    30 1   
    61    29    70 1   
    62    30    31 1   
    63    30    71 1   
    64    31    72 1   
    65    31    73 1   
    66    31    74 1   
    67    32    33 1   
    68    32    75 1   
    69    33    34 1   
    70    33    35 1   
    71    33    76 1   
    72    34    77 1   
    73    34    78 1   
    74    34    79 1   
    75    35    36 1   
    76    35    80 1   
    77    35    81 1   
    78    36    37 1   
    79    36    82 1   
    80    37    38 1   
    81    38    39 2   
    82    38    40 1   
    83    40    41 1   
    84    40    42 1   
    85    40    83 1   
    86    41    84 1   
    87    41    85 1   
    88    41    86 1   
    89    42    43 1   
    90    42    87 1   
    91    42    88 1   
    92    43    89 1   
    93    43    90 1   
    94    43    91 1   
@<TRIPOS>SUBSTRUCTURE
     1 AB8         1 TEMP              0 ****  ****    0 ROOT
