@<TRIPOS>MOLECULE
AB8
   91    94     1     0     0
SMALL
abcg2


@<TRIPOS>ATOM
      1 C88         54.2220    26.9970    17.7120 c3         1 AB8       0.141900
      2 O87         54.4010    25.5840    17.6260 os         1 AB8      -0.331100
      3 C79         53.2890    24.8000    17.6410 ca         1 AB8       0.107100
      4 C80         53.5090    23.4130    17.5960 ca         1 AB8       0.108100
      5 O85         54.8050    22.9860    17.5350 oh         1 AB8      -0.520100
      6 C81         52.4280    22.5450    17.6230 ca         1 AB8      -0.169000
      7 C83         51.1270    23.0340    17.7000 ca         1 AB8      -0.086000
      8 C77         51.9840    25.2790    17.7090 ca         1 AB8      -0.158000
      9 C76         50.8950    24.4040    17.7460 ca         1 AB8      -0.128300
     10 C73         49.4960    24.9410    17.9310 c3         1 AB8       0.158300
     11 N1          49.0990    24.8750    19.3490 n          1 AB8      -0.455800
     12 C2          49.7070    25.8770    20.2410 c6         1 AB8       0.129700
     13 C62         49.0960    27.2620    19.9860 c3         1 AB8      -0.169400
     14 C65         49.8600    28.3310    20.7430 c          1 AB8       0.589100
     15 N67         49.1480    29.0750    21.6030 ns         1 AB8      -0.505900
     16 C69         49.7430    30.1400    22.3910 c3         1 AB8       0.095300
     17 O66         51.0710    28.4970    20.5700 o          1 AB8      -0.617100
     18 C4          49.5730    25.4710    21.7060 c6         1 AB8      -0.121400
     19 C7          49.6600    23.9700    21.7890 c6         1 AB8       0.176300
     20 O9          48.5040    23.4470    21.0700 os         1 AB8      -0.442100
     21 C10         48.4200    23.7720    19.7620 c          1 AB8       0.710100
     22 O11         47.7520    23.0580    19.0270 o          1 AB8      -0.548000
     23 C12         49.6670    23.3770    23.1780 c3         1 AB8      -0.067400
     24 C15         49.8010    21.8520    23.1660 c3         1 AB8      -0.070400
     25 C18         50.2790    21.2720    24.5000 c6         1 AB8      -0.045700
     26 C20         50.4500    19.7380    24.4540 c6         1 AB8      -0.013500
     27 C31         51.0080    19.2150    25.7650 ce         1 AB8      -0.077200
     28 C32         50.6180    19.9290    26.9740 ce         1 AB8      -0.176000
     29 C34         49.8680    21.0360    26.9580 c2         1 AB8      -0.209200
     30 C36         49.3800    21.6770    25.6900 c6         1 AB8      -0.028500
     31 C38         47.8850    21.3760    25.4850 c3         1 AB8      -0.084100
     32 C29         51.7910    18.1290    25.8290 c2         1 AB8      -0.197200
     33 C27         52.2430    17.3150    24.6550 c6         1 AB8      -0.020500
     34 C42         53.7760    17.3460    24.5340 c3         1 AB8      -0.083100
     35 C24         51.5170    17.7300    23.3660 c6         1 AB8      -0.090400
     36 C22         51.2440    19.2230    23.2570 c6         1 AB8       0.180300
     37 O46         52.5010    19.9670    23.1900 os         1 AB8      -0.446100
     38 C47         53.0810    20.1120    21.9930 c          1 AB8       0.589100
     39 O48         52.6110    19.6790    20.9610 o          1 AB8      -0.501000
     40 C49         54.3990    20.8560    22.0760 c3         1 AB8      -0.121700
     41 C58         55.5450    19.8630    21.8360 c3         1 AB8      -0.085100
     42 C51         54.4420    22.0050    21.0610 c3         1 AB8      -0.063400
     43 C54         53.3430    23.0420    21.2610 c3         1 AB8      -0.096100
     44 H881        53.7110    27.2710    18.6380 h1         1 AB8       0.044700
     45 H882        55.2220    27.4240    17.7050 h1         1 AB8       0.044700
     46 H883        53.6550    27.3740    16.8580 h1         1 AB8       0.044700
     47 H85         54.8260    22.0190    17.5410 ho         1 AB8       0.459000
     48 H81         52.6120    21.4770    17.5900 ha         1 AB8       0.125000
     49 H83         50.2970    22.3410    17.7320 ha         1 AB8       0.132000
     50 H77         51.8030    26.3430    17.7450 ha         1 AB8       0.122000
     51 H731        48.7750    24.3620    17.3630 h1         1 AB8       0.069700
     52 H732        49.4370    25.9750    17.5970 h1         1 AB8       0.069700
     53 H2          50.7690    25.9200    19.9950 h1         1 AB8       0.077700
     54 H621        48.0410    27.2500    20.2620 hc         1 AB8       0.069700
     55 H622        49.1660    27.5190    18.9280 hc         1 AB8       0.069700
     56 H67         48.1660    28.8850    21.7120 hn         1 AB8       0.317500
     57 H691        50.2030    30.8900    21.7460 h1         1 AB8       0.043700
     58 H692        48.9610    30.6090    22.9820 h1         1 AB8       0.043700
     59 H693        50.5100    29.7470    23.0610 h1         1 AB8       0.043700
     60 H41         48.6150    25.7960    22.1190 hc         1 AB8       0.067200
     61 H42         50.3680    25.9430    22.2850 hc         1 AB8       0.067200
     62 H7          50.5440    23.6250    21.2490 h1         1 AB8       0.058700
     63 H121        48.7710    23.6970    23.7160 hc         1 AB8       0.052700
     64 H122        50.5240    23.8140    23.6980 hc         1 AB8       0.052700
     65 H151        50.5210    21.5890    22.3900 hc         1 AB8       0.052700
     66 H152        48.8550    21.3950    22.8710 hc         1 AB8       0.052700
     67 H18         51.2660    21.6990    24.7030 hc         1 AB8       0.059700
     68 H20         49.4500    19.3060    24.3270 hc         1 AB8       0.064700
     69 H32         50.9520    19.5110    27.9190 ha         1 AB8       0.174000
     70 H34         49.5730    21.5010    27.8930 ha         1 AB8       0.173000
     71 H36         49.4720    22.7600    25.8160 hc         1 AB8       0.047700
     72 H381        47.7190    20.3140    25.2910 hc         1 AB8       0.036700
     73 H382        47.3230    21.6400    26.3830 hc         1 AB8       0.036700
     74 H383        47.4700    21.9450    24.6520 hc         1 AB8       0.036700
     75 H29         52.1520    17.8080    26.8030 ha         1 AB8       0.172000
     76 H27         51.9720    16.2710    24.8540 hc         1 AB8       0.050700
     77 H421        54.2390    16.9580    25.4440 hc         1 AB8       0.036700
     78 H422        54.1070    16.7310    23.6940 hc         1 AB8       0.036700
     79 H423        54.1360    18.3630    24.3780 hc         1 AB8       0.036700
     80 H241        50.5400    17.2410    23.3310 hc         1 AB8       0.057200
     81 H242        52.0720    17.3920    22.4900 hc         1 AB8       0.057200
     82 H22         50.7040    19.4230    22.3360 h1         1 AB8       0.071700
     83 H49         54.4850    21.2650    23.0840 hc         1 AB8       0.073700
     84 H581        55.4670    19.4250    20.8390 hc         1 AB8       0.044033
     85 H582        56.5010    20.3840    21.9090 hc         1 AB8       0.044033
     86 H583        55.5380    19.0560    22.5690 hc         1 AB8       0.044033
     87 H511        54.3770    21.5860    20.0540 hc         1 AB8       0.049700
     88 H512        55.4230    22.4790    21.1420 hc         1 AB8       0.049700
     89 H541        53.3680    23.4570    22.2720 hc         1 AB8       0.037367
     90 H542        53.4440    23.8630    20.5510 hc         1 AB8       0.037367
     91 H543        52.3590    22.5980    21.1070 hc         1 AB8       0.037367
@<TRIPOS>BOND
     1     1     2 1   
     2     1    44 1   
     3     1    45 1   
     4     1    46 1   
     5     2     3 1   
     6     3     4 ar  
     7     3     8 ar  
     8     4     5 1   
     9     4     6 ar  
    10     5    47 1   
    11     6     7 ar  
    12     6    48 1   
    13     7     9 ar  
    14     7    49 1   
    15     8     9 ar  
    16     8    50 1   
    17     9    10 1   
    18    10    11 1   
    19    10    51 1   
    20    10    52 1   
    21    11    12 1   
    22    11    21 1   
    23    12    13 1   
    24    12    18 1   
    25    12    53 1   
    26    13    14 1   
    27    13    54 1   
    28    13    55 1   
    29    14    15 1   
    30    14    17 2   
    31    15    16 1   
    32    15    56 1   
    33    16    57 1   
    34    16    58 1   
    35    16    59 1   
    36    18    19 1   
    37    18    60 1   
    38    18    61 1   
    39    19    20 1   
    40    19    23 1   
    41    19    62 1   
    42    20    21 1   
    43    21    22 2   
    44    23    24 1   
    45    23    63 1   
    46    23    64 1   
    47    24    25 1   
    48    24    65 1   
    49    24    66 1   
    50    25    26 1   
    51    25    30 1   
    52    25    67 1   
    53    26    27 1   
    54    26    36 1   
    55    26    68 1   
    56    27    28 1   
    57    27    32 2   
    58    28    29 2   
    59    28    69 1   
    60    29    30 1   
    61    29    70 1   
    62    30    31 1   
    63    30    71 1   
    64    31    72 1   
    65    31    73 1   
    66    31    74 1   
    67    32    33 1   
    68    32    75 1   
    69    33    34 1   
    70    33    35 1   
    71    33    76 1   
    72    34    77 1   
    73    34    78 1   
    74    34    79 1   
    75    35    36 1   
    76    35    80 1   
    77    35    81 1   
    78    36    37 1   
    79    36    82 1   
    80    37    38 1   
    81    38    39 2   
    82    38    40 1   
    83    40    41 1   
    84    40    42 1   
    85    40    83 1   
    86    41    84 1   
    87    41    85 1   
    88    41    86 1   
    89    42    43 1   
    90    42    87 1   
    91    42    88 1   
    92    43    89 1   
    93    43    90 1   
    94    43    91 1   
@<TRIPOS>SUBSTRUCTURE
     1 AB8         1 TEMP              0 ****  ****    0 ROOT
