@<TRIPOS>MOLECULE
AB9
   78    79     1     0     0
SMALL
abcg2


@<TRIPOS>ATOM
      1 C11         -3.8850    -0.3880     1.1100 c6         1 AB9       0.403300
      2 C12          1.0540     1.5270     0.2920 c6         1 AB9       0.097700
      3 C21         -4.3850    -1.7710     0.6800 c6         1 AB9       0.128500
      4 C22         -0.0610     2.4310     0.8020 c6         1 AB9      -0.094400
      5 C23          3.2670     2.5420    -0.1010 c          1 AB9       0.578100
      6 C24          4.6710     2.6230     0.4870 c3         1 AB9       0.095300
      7 C25          5.3440     1.2730     0.2160 c3         1 AB9      -0.122400
      8 C26          6.5400     0.9990     1.1100 c3         1 AB9       0.152800
      9 C29          2.5450    -1.4720     1.3040 c3         1 AB9       0.171600
     10 C30          3.3040    -2.6260     0.6850 c3         1 AB9       0.166800
     11 C31         -4.9840    -1.6680    -0.7170 c6         1 AB9       0.131300
     12 C32         -1.4330     1.9560     0.3420 c6         1 AB9       0.161500
     13 C33          6.0200    -2.8280    -1.8970 c3         1 AB9       0.144800
     14 C35          4.9780    -3.3180    -0.9050 c3         1 AB9       0.163800
     15 O11         -2.8560     0.0080     0.2620 os         1 AB9      -0.496000
     16 N21         -3.2960    -2.7360     0.7340 n8         1 AB9      -1.001200
     17 O31         -5.5170    -2.9300    -1.0710 oh         1 AB9      -0.676000
     18 C41         -6.0770    -0.5980    -0.7200 c6         1 AB9       0.120300
     19 O41         -6.5710    -0.3700    -2.0190 oh         1 AB9      -0.714000
     20 C51         -5.5310     0.7260    -0.1900 c6         1 AB9       0.172300
     21 O51         -4.9390     0.5270     1.0860 os         1 AB9      -0.468000
     22 C61         -6.5930     1.7950    -0.0170 c3         1 AB9       0.161800
     23 N61         -5.9890     3.0330     0.4460 n8         1 AB9      -1.006200
     24 N12          2.3560     1.9910     0.7110 ns         1 AB9      -0.488900
     25 N32         -2.4510     2.8220     0.9140 n8         1 AB9      -1.013200
     26 C42         -1.6470     0.5160     0.7960 c6         1 AB9       0.150300
     27 C52         -0.5260    -0.4160     0.3240 c6         1 AB9       0.164300
     28 O52         -0.6880    -1.7130     0.8180 oh         1 AB9      -0.759000
     29 C62          0.8350     0.0960     0.7850 c6         1 AB9       0.159300
     30 O62          1.8570    -0.7450     0.3100 os         1 AB9      -0.427000
     31 N31          4.3500    -2.2070    -0.2220 n7         1 AB9      -0.866400
     32 N34          6.6310    -3.9520    -2.5900 n8         1 AB9      -0.995200
     33 O36          3.0490     2.8890    -1.2540 o          1 AB9      -0.604100
     34 N27          7.0600    -0.3360     0.8500 n8         1 AB9      -1.010200
     35 O28          5.3830     3.7120    -0.0290 oh         1 AB9      -0.644000
     36 H11         -3.5410    -0.4210     2.1510 h2         1 AB9       0.076700
     37 H12          1.0470     1.5310    -0.8010 h1         1 AB9       0.097700
     38 H21         -5.1940    -2.0420     1.3720 h1         1 AB9       0.051700
     39 H221         0.1110     3.4510     0.4490 hc         1 AB9       0.057200
     40 H222        -0.0360     2.4660     1.8970 hc         1 AB9       0.057200
     41 H24          4.6050     2.7800     1.5690 h1         1 AB9       0.071700
     42 H251         4.6170     0.4690     0.3520 hc         1 AB9       0.070200
     43 H252         5.6400     1.2300    -0.8390 hc         1 AB9       0.070200
     44 H261         7.2870     1.7950     0.9860 h1         1 AB9       0.032700
     45 H262         6.2150     1.0380     2.1540 h1         1 AB9       0.032700
     46 H291         1.8480    -1.8870     2.0410 h1         1 AB9       0.020200
     47 H292         3.2360    -0.8170     1.8560 h1         1 AB9       0.020200
     48 H301         2.5930    -3.2490     0.1320 h1         1 AB9       0.036700
     49 H302         3.6740    -3.2520     1.5140 h1         1 AB9       0.036700
     50 H3          -4.1970    -1.3770    -1.4250 h1         1 AB9       0.076700
     51 H32         -1.4400     1.9630    -0.7610 h1         1 AB9       0.035700
     52 H331         6.7420    -2.1930    -1.3650 h1         1 AB9       0.034200
     53 H332         5.5280    -2.1870    -2.6320 h1         1 AB9       0.034200
     54 H351         4.2100    -3.8800    -1.4460 h1         1 AB9       0.030700
     55 H352         5.4500    -4.0360    -0.2100 h1         1 AB9       0.030700
     56 H211        -3.2290    -3.1140     1.6710 hn         1 AB9       0.414000
     57 H212        -3.5180    -3.5280     0.1410 hn         1 AB9       0.414000
     58 H4          -5.4080    -3.0600    -2.0160 ho         1 AB9       0.454000
     59 H41         -6.8820    -0.9360    -0.0490 h1         1 AB9       0.047700
     60 H2          -7.1360    -1.1090    -2.2640 ho         1 AB9       0.509000
     61 H51         -4.7840     1.1140    -0.8960 h1         1 AB9       0.077700
     62 H611        -7.0490     1.9780    -0.9910 h1         1 AB9       0.040700
     63 H612        -7.3910     1.4120     0.6370 h1         1 AB9       0.040700
     64 H11A        -6.6680     3.7810     0.3960 hn         1 AB9       0.402500
     65 H12A        -5.7370     2.9500     1.4210 hn         1 AB9       0.402500
     66 H5           2.6310     1.7910     1.6610 hn         1 AB9       0.307500
     67 H321        -2.2840     3.7730     0.6060 hn         1 AB9       0.412000
     68 H322        -3.3700     2.5830     0.5640 hn         1 AB9       0.412000
     69 H42         -1.6870     0.5020     1.8950 h1         1 AB9       0.055700
     70 H52         -0.5310    -0.4050    -0.7810 h1         1 AB9       0.051700
     71 H1          -1.6010    -2.0400     0.6310 ho         1 AB9       0.555000
     72 H62          0.8330     0.1150     1.8880 h1         1 AB9       0.036700
     73 H31          5.0680    -1.6920     0.2830 hn         1 AB9       0.425000
     74 H341         7.2970    -3.6050    -3.2680 hn         1 AB9       0.389000
     75 H342         7.1750    -4.4950    -1.9310 hn         1 AB9       0.389000
     76 H271         7.4890    -0.3570    -0.0680 hn         1 AB9       0.395000
     77 H272         7.8040    -0.5470     1.5040 hn         1 AB9       0.395000
     78 H28          5.2800     3.7020    -0.9890 ho         1 AB9       0.464000
@<TRIPOS>BOND
     1     1     3 1   
     2     1    15 1   
     3     1    21 1   
     4     1    36 1   
     5     2     4 1   
     6     2    24 1   
     7     2    29 1   
     8     2    37 1   
     9     3    11 1   
    10     3    16 1   
    11     3    38 1   
    12     4    12 1   
    13     4    39 1   
    14     4    40 1   
    15     5     6 1   
    16     5    24 1   
    17     5    33 2   
    18     6     7 1   
    19     6    35 1   
    20     6    41 1   
    21     7     8 1   
    22     7    42 1   
    23     7    43 1   
    24     8    34 1   
    25     8    44 1   
    26     8    45 1   
    27     9    10 1   
    28     9    30 1   
    29     9    46 1   
    30     9    47 1   
    31    10    31 1   
    32    10    48 1   
    33    10    49 1   
    34    11    17 1   
    35    11    18 1   
    36    11    50 1   
    37    12    25 1   
    38    12    26 1   
    39    12    51 1   
    40    13    14 1   
    41    13    32 1   
    42    13    52 1   
    43    13    53 1   
    44    14    31 1   
    45    14    54 1   
    46    14    55 1   
    47    15    26 1   
    48    16    56 1   
    49    16    57 1   
    50    17    58 1   
    51    18    19 1   
    52    18    20 1   
    53    18    59 1   
    54    19    60 1   
    55    20    21 1   
    56    20    22 1   
    57    20    61 1   
    58    22    23 1   
    59    22    62 1   
    60    22    63 1   
    61    23    64 1   
    62    23    65 1   
    63    24    66 1   
    64    25    67 1   
    65    25    68 1   
    66    26    27 1   
    67    26    69 1   
    68    27    28 1   
    69    27    29 1   
    70    27    70 1   
    71    28    71 1   
    72    29    30 1   
    73    29    72 1   
    74    31    73 1   
    75    32    74 1   
    76    32    75 1   
    77    34    76 1   
    78    34    77 1   
    79    35    78 1   
@<TRIPOS>SUBSTRUCTURE
     1 AB9         1 TEMP              0 ****  ****    0 ROOT
