@<TRIPOS>MOLECULE
AB9
   78    79     1     0     0
SMALL
No Charge or Current Charge


@<TRIPOS>ATOM
      1 C11         -3.9150    -0.5020     0.7780 c6         1 AB9       0.403300
      2 C12          1.1640     1.0250    -0.3310 c6         1 AB9       0.097700
      3 C21         -4.5870    -1.6280    -0.0970 c6         1 AB9       0.128500
      4 C22          0.2650     2.1650     0.2090 c6         1 AB9      -0.094400
      5 C23          3.4230     2.1450    -0.6350 c          1 AB9       0.578100
      6 C24          4.9010     2.1620    -0.1270 c3         1 AB9       0.095300
      7 C25          5.8730     1.6180    -1.2040 c3         1 AB9      -0.122400
      8 C26          7.3190     1.4390    -0.7010 c3         1 AB9       0.152800
      9 C29          1.6010    -2.6520     0.4570 c3         1 AB9       0.171600
     10 C30          2.9640    -3.3580     0.2200 c3         1 AB9       0.166800
     11 C31         -5.7240    -1.0090    -0.9750 c6         1 AB9       0.131300
     12 C32         -1.2110     1.9320    -0.1830 c6         1 AB9       0.161500
     13 C33          6.5390    -2.5030     1.4380 c3         1 AB9       0.144800
     14 C35          5.4140    -3.3130     0.7290 c3         1 AB9       0.163800
     15 O11         -3.1300     0.3990    -0.0330 os         1 AB9      -0.496000
     16 N21         -3.5950    -2.4030    -0.9320 n8         1 AB9      -1.001200
     17 O31         -6.4550    -2.0250    -1.6980 oh         1 AB9      -0.676000
     18 C41         -6.7090    -0.1920    -0.0910 c6         1 AB9       0.120300
     19 O41         -7.7360     0.3770    -0.9250 oh         1 AB9      -0.714000
     20 C51         -5.9200     0.8930     0.7030 c6         1 AB9       0.172300
     21 O51         -4.8950     0.2590     1.5150 os         1 AB9      -0.468000
     22 C61         -6.8410     1.7160     1.6650 c3         1 AB9       0.161800
     23 N61         -6.1350     2.7390     2.4810 n8         1 AB9      -1.006200
     24 N12          2.5790     1.2670     0.0110 ns         1 AB9      -0.488900
     25 N32         -2.0490     3.0510     0.3070 n8         1 AB9      -1.013200
     26 C42         -1.7340     0.5590     0.3510 c6         1 AB9       0.150300
     27 C52         -0.8180    -0.6170    -0.1570 c6         1 AB9       0.164300
     28 O52         -1.2900    -1.8970     0.3220 oh         1 AB9      -0.759000
     29 C62          0.6850    -0.3460     0.2380 c6         1 AB9       0.159300
     30 O62          1.6180    -1.3700    -0.2050 os         1 AB9      -0.427000
     31 N31          4.0940    -2.6640     0.8920 n7         1 AB9      -0.866400
     32 N34          7.8680    -3.1600     1.3650 n8         1 AB9      -0.995200
     33 O36          3.0280     2.8810    -1.5310 o          1 AB9      -0.604100
     34 N27          8.1890     0.9090    -1.7670 n8         1 AB9      -1.010200
     35 O28          5.3150     3.4940     0.2630 oh         1 AB9      -0.644000
     36 H11         -3.2630    -0.9980     1.5130 h2         1 AB9       0.076700
     37 H12          1.0800     0.9930    -1.4290 h1         1 AB9       0.097700
     38 H21         -5.0350    -2.3450     0.6070 h1         1 AB9       0.051700
     39 H221         0.6040     3.1280    -0.1950 hc         1 AB9       0.057200
     40 H222         0.3610     2.2330     1.3020 hc         1 AB9       0.057200
     41 H24          4.9510     1.4920     0.7420 h1         1 AB9       0.071700
     42 H251         5.5000     0.6460    -1.5500 hc         1 AB9       0.070200
     43 H252         5.8650     2.2870    -2.0740 hc         1 AB9       0.070200
     44 H261         7.7240     2.4040    -0.3630 h1         1 AB9       0.032700
     45 H262         7.3320     0.7400     0.1470 h1         1 AB9       0.032700
     46 H291         0.8060    -3.2880     0.0490 h1         1 AB9       0.020200
     47 H292         1.4360    -2.5390     1.5370 h1         1 AB9       0.020200
     48 H301         3.1420    -3.4230    -0.8620 h1         1 AB9       0.036700
     49 H302         2.8820    -4.3870     0.5970 h1         1 AB9       0.036700
     50 H3          -5.2560    -0.3090    -1.6850 h1         1 AB9       0.076700
     51 H32         -1.2970     1.9220    -1.2800 h1         1 AB9       0.035700
     52 H331         6.2780    -2.3680     2.4970 h1         1 AB9       0.034200
     53 H332         6.6140    -1.5090     0.9740 h1         1 AB9       0.034200
     54 H351         5.6620    -3.4030    -0.3370 h1         1 AB9       0.030700
     55 H352         5.3860    -4.3270     1.1510 h1         1 AB9       0.030700
     56 H211        -3.9910    -3.3320    -1.1400 hn         1 AB9       0.414000
     57 H212        -3.5240    -1.9620    -1.8610 hn         1 AB9       0.414000
     58 H4          -5.8230    -2.4570    -2.3140 ho         1 AB9       0.454000
     59 H41         -7.1670    -0.8790     0.6370 h1         1 AB9       0.047700
     60 H2          -7.9420    -0.3340    -1.5800 ho         1 AB9       0.509000
     61 H51         -5.4440     1.5920    -0.0010 h1         1 AB9       0.077700
     62 H611        -7.6210     2.2180     1.0760 h1         1 AB9       0.040700
     63 H612        -7.3370     1.0110     2.3470 h1         1 AB9       0.040700
     64 H11A        -6.7640     3.0690     3.2240 hn         1 AB9       0.402500
     65 H12A        -5.3800     2.2650     2.9920 hn         1 AB9       0.402500
     66 H5           3.0000     0.6680     0.7120 hn         1 AB9       0.307500
     67 H321        -2.0780     3.7830    -0.4110 hn         1 AB9       0.412000
     68 H322        -3.0170     2.7040     0.3330 hn         1 AB9       0.412000
     69 H42         -1.6780     0.5920     1.4490 h1         1 AB9       0.055700
     70 H52         -0.8640    -0.6130    -1.2570 h1         1 AB9       0.051700
     71 H1          -2.1520    -2.0870    -0.1660 ho         1 AB9       0.555000
     72 H62          0.7470    -0.2910     1.3350 h1         1 AB9       0.036700
     73 H31          3.8850    -2.6120     1.8970 hn         1 AB9       0.425000
     74 H341         8.5470    -2.5980     1.8930 hn         1 AB9       0.389000
     75 H342         7.8330    -4.0460     1.8840 hn         1 AB9       0.389000
     76 H271         8.2590     1.6060    -2.5180 hn         1 AB9       0.395000
     77 H272         9.1510     0.8440    -1.4120 hn         1 AB9       0.395000
     78 H28          5.0050     4.1080    -0.4420 ho         1 AB9       0.464000
@<TRIPOS>BOND
     1     1     3 1   
     2     1    15 1   
     3     1    21 1   
     4     1    36 1   
     5     2     4 1   
     6     2    24 1   
     7     2    29 1   
     8     2    37 1   
     9     3    11 1   
    10     3    16 1   
    11     3    38 1   
    12     4    12 1   
    13     4    39 1   
    14     4    40 1   
    15     5     6 1   
    16     5    24 1   
    17     5    33 2   
    18     6     7 1   
    19     6    35 1   
    20     6    41 1   
    21     7     8 1   
    22     7    42 1   
    23     7    43 1   
    24     8    34 1   
    25     8    44 1   
    26     8    45 1   
    27     9    10 1   
    28     9    30 1   
    29     9    46 1   
    30     9    47 1   
    31    10    31 1   
    32    10    48 1   
    33    10    49 1   
    34    11    17 1   
    35    11    18 1   
    36    11    50 1   
    37    12    25 1   
    38    12    26 1   
    39    12    51 1   
    40    13    14 1   
    41    13    32 1   
    42    13    52 1   
    43    13    53 1   
    44    14    31 1   
    45    14    54 1   
    46    14    55 1   
    47    15    26 1   
    48    16    56 1   
    49    16    57 1   
    50    17    58 1   
    51    18    19 1   
    52    18    20 1   
    53    18    59 1   
    54    19    60 1   
    55    20    21 1   
    56    20    22 1   
    57    20    61 1   
    58    22    23 1   
    59    22    62 1   
    60    22    63 1   
    61    23    64 1   
    62    23    65 1   
    63    24    66 1   
    64    25    67 1   
    65    25    68 1   
    66    26    27 1   
    67    26    69 1   
    68    27    28 1   
    69    27    29 1   
    70    27    70 1   
    71    28    71 1   
    72    29    30 1   
    73    29    72 1   
    74    31    73 1   
    75    32    74 1   
    76    32    75 1   
    77    34    76 1   
    78    34    77 1   
    79    35    78 1   
@<TRIPOS>SUBSTRUCTURE
     1 AB9         1 TEMP              0 ****  ****    0 ROOT
