@<TRIPOS>MOLECULE
ABA
   15    14     1     0     0
SMALL
abcg2


@<TRIPOS>ATOM
      1 N            8.8890    35.1510    18.7290 n8         1 ABA      -0.991200
      2 CA          10.1590    35.6750    19.2370 c3         1 ABA       0.025500
      3 C           10.7480    36.6110    18.1500 c          1 ABA       0.727000
      4 O           11.8990    36.3870    17.7290 o          1 ABA      -0.735500
      5 CB          11.0780    34.5350    19.6450 c3         1 ABA      -0.054400
      6 CG          10.5390    33.6970    20.8000 c3         1 ABA      -0.088100
      7 OXT          9.9890    37.5360    17.7860 o          1 ABA      -0.735500
      8 H            8.3600    34.7390    19.4870 hn         1 ABA       0.372000
      9 HN2          8.3370    35.9370    18.4080 hn         1 ABA       0.372000
     10 HA           9.9980    36.3060    20.1310 h1         1 ABA      -0.010300
     11 HB3         11.2580    33.8900    18.7800 hc         1 ABA       0.046200
     12 HB2         12.0480    34.9490    19.9280 hc         1 ABA       0.046200
     13 HG1         11.2570    32.9330    21.1010 hc         1 ABA       0.008700
     14 HG3         10.3300    34.3150    21.6760 hc         1 ABA       0.008700
     15 HG2          9.6150    33.1790    20.5350 hc         1 ABA       0.008700
@<TRIPOS>BOND
     1     1     2 1   
     2     1     8 1   
     3     1     9 1   
     4     2     3 1   
     5     2     5 1   
     6     2    10 1   
     7     3     4 1   
     8     3     7 1   
     9     5     6 1   
    10     5    11 1   
    11     5    12 1   
    12     6    13 1   
    13     6    14 1   
    14     6    15 1   
@<TRIPOS>SUBSTRUCTURE
     1 ABA         1 TEMP              0 ****  ****    0 ROOT
