@<TRIPOS>MOLECULE
ABA
   15    14     1     0     0
SMALL
No Charge or Current Charge


@<TRIPOS>ATOM
      1 N            8.8190    35.0580    18.6420 n8         1 ABA      -0.991200
      2 CA          10.1090    35.6600    19.1370 c3         1 ABA       0.025500
      3 C           10.8360    36.6770    18.1490 c          1 ABA       0.727000
      4 O           11.7130    36.2640    17.3980 o          1 ABA      -0.735500
      5 CB          11.0710    34.5470    19.6430 c3         1 ABA      -0.054400
      6 CG          10.5390    33.7410    20.8500 c3         1 ABA      -0.088100
      7 OXT         10.4880    37.8510    18.1770 o          1 ABA      -0.735500
      8 H            8.4040    34.4970    19.3940 hn         1 ABA       0.372000
      9 HN2          8.1380    35.8110    18.4860 hn         1 ABA       0.372000
     10 HA           9.8310    36.2510    20.0200 h1         1 ABA      -0.010300
     11 HB3         11.3050    33.8580    18.8230 hc         1 ABA       0.046200
     12 HB2         12.0180    35.0130    19.9400 hc         1 ABA       0.046200
     13 HG1         11.2940    33.0200    21.1860 hc         1 ABA       0.008700
     14 HG3         10.3070    34.4080    21.6900 hc         1 ABA       0.008700
     15 HG2          9.6320    33.1840    20.5880 hc         1 ABA       0.008700
@<TRIPOS>BOND
     1     1     2 1   
     2     1     8 1   
     3     1     9 1   
     4     2     3 1   
     5     2     5 1   
     6     2    10 1   
     7     3     4 1   
     8     3     7 1   
     9     5     6 1   
    10     5    11 1   
    11     5    12 1   
    12     6    13 1   
    13     6    14 1   
    14     6    15 1   
@<TRIPOS>SUBSTRUCTURE
     1 ABA         1 TEMP              0 ****  ****    0 ROOT
