@<TRIPOS>MOLECULE
ABC
  127   132     1     0     0
SMALL
No Charge or Current Charge


@<TRIPOS>ATOM
      1 C1G         -2.5820     0.6860    -9.0390 c6         1 ABC       0.364300
      2 C2G         -3.9820     0.3600    -8.4130 c6         1 ABC       0.112300
      3 C3G         -4.3430    -1.1240    -8.7050 c6         1 ABC       0.150300
      4 C4G         -4.2640    -1.4120   -10.2330 c6         1 ABC       0.151300
      5 C5G         -2.8430    -1.0260   -10.7550 c6         1 ABC       0.132300
      6 C6G         -2.7000    -1.1680   -12.2920 c3         1 ABC      -0.092100
      7 O5G         -2.5540     0.3590   -10.4450 os         1 ABC      -0.468000
      8 O2G         -4.0340     0.6140    -6.9850 oh         1 ABC      -0.729000
      9 O3G         -5.6540    -1.4210    -8.1930 oh         1 ABC      -0.645000
     10 O4G         -4.5740    -2.7960   -10.4850 oh         1 ABC      -0.698000
     11 C1H          1.7350     1.3960    -5.9690 c6         1 ABC       0.356300
     12 C2H          0.4330     2.2700    -5.9790 c6         1 ABC       0.124300
     13 C3H         -0.7580     1.4050    -6.4710 c6         1 ABC       0.152300
     14 C4H         -0.4300     0.7920    -7.8720 c6         1 ABC       0.159300
     15 C5H          0.8840    -0.0350    -7.7580 c6         1 ABC       0.151300
     16 C6H          1.3140    -0.6440    -9.1330 c3         1 ABC       0.164600
     17 O5H          1.9660     0.8070    -7.2660 os         1 ABC      -0.451000
     18 O2H          0.1130     2.8470    -4.6890 oh         1 ABC      -0.738000
     19 O3H         -1.9570     2.2040    -6.4540 oh         1 ABC      -0.732000
     20 O4H         -1.5140    -0.0260    -8.3770 os         1 ABC      -0.494000
     21 O6H          2.5530    -1.3800    -9.0710 oh         1 ABC      -0.717000
     22 C1I          3.5850    -0.2360    -1.1630 c6         1 ABC       0.194700
     23 C2I          3.5880     1.2000    -1.7810 c6         1 ABC       0.138300
     24 C3I          2.4630     1.3210    -2.8390 c6         1 ABC       0.153300
     25 C4I          2.7470     0.3260    -4.0120 c6         1 ABC       0.221500
     26 C5I          2.9800    -1.0950    -3.4850 c2         1 ABC      -0.118400
     27 C6I          2.7970    -2.2070    -4.5110 c3         1 ABC       0.200800
     28 C7I          3.3560    -1.3190    -2.2050 c2         1 ABC      -0.190200
     29 O2I          3.4150     2.2070    -0.7610 oh         1 ABC      -0.670000
     30 O3I          2.3520     2.6980    -3.2620 oh         1 ABC      -0.748000
     31 O4I          1.6750     0.3410    -4.9850 os         1 ABC      -0.484000
     32 O6I          3.7820    -3.2350    -4.3300 oh         1 ABC      -0.667000
     33 C1J          2.9490    -1.1680     4.1490 c6         1 ABC       0.364300
     34 C2J          4.0270    -0.2480     3.4850 c6         1 ABC       0.119300
     35 C3J          3.4990     0.3090     2.1320 c6         1 ABC       0.145300
     36 C4J          3.0440    -0.8650     1.1990 c6         1 ABC       0.159500
     37 C5J          1.9690    -1.6980     1.9670 c6         1 ABC       0.177300
     38 C6J          1.4990    -2.9500     1.1850 c3         1 ABC      -0.083100
     39 O5J          2.5050    -2.1850     3.2210 os         1 ABC      -0.473000
     40 O2J          4.4050     0.8500     4.3500 oh         1 ABC      -0.711000
     41 O3J          4.5110     1.1420     1.5310 oh         1 ABC      -0.670000
     42 N1J          2.5380    -0.3790    -0.1250 n7         1 ABC      -0.880400
     43 C1K         -1.0700    -1.0000     7.7120 c6         1 ABC       0.368300
     44 C2K          0.3200    -1.6920     7.9180 c6         1 ABC       0.107300
     45 C3K          1.3770    -1.0290     6.9920 c6         1 ABC       0.117300
     46 C4K          0.8910    -1.0470     5.4990 c6         1 ABC       0.154300
     47 C5K         -0.5100    -0.3640     5.4260 c6         1 ABC       0.166300
     48 C6K         -1.1080    -0.3900     3.9810 c3         1 ABC       0.169600
     49 O5K         -1.4470    -1.0240     6.3220 os         1 ABC      -0.445000
     50 O2K          0.7820    -1.6460     9.2930 oh         1 ABC      -0.728000
     51 O3K          2.6370    -1.6870     7.2120 oh         1 ABC      -0.724000
     52 O4K          1.8170    -0.3850     4.5930 os         1 ABC      -0.477000
     53 O6K         -2.4380     0.1640     3.8990 oh         1 ABC      -0.714000
     54 C1L         -3.0390     2.2640    11.4370 c6         1 ABC       0.365300
     55 C2L         -2.7940     0.7260    11.5910 c6         1 ABC       0.113300
     56 C3L         -1.6720     0.3120    10.6020 c6         1 ABC       0.164300
     57 C4L         -2.0870     0.7080     9.1450 c6         1 ABC       0.157300
     58 C5L         -2.4020     2.2370     9.1110 c6         1 ABC       0.166300
     59 C6L         -2.9460     2.7050     7.7390 c3         1 ABC      -0.095100
     60 O5L         -3.4160     2.5660    10.0930 os         1 ABC      -0.484000
     61 O2L         -2.4380     0.3540    12.9450 oh         1 ABC      -0.725000
     62 O3L         -1.3880    -1.0910    10.7590 oh         1 ABC      -0.727000
     63 O4L         -1.0670     0.3690     8.1730 os         1 ABC      -0.498000
     64 H1G         -2.4190     1.7710    -8.9400 h2         1 ABC       0.081700
     65 H2G         -4.7150     0.9980    -8.9290 h1         1 ABC       0.085700
     66 H3G         -3.5980    -1.7570    -8.2000 h1         1 ABC       0.056700
     67 H4G         -5.0000    -0.7710   -10.7420 h1         1 ABC       0.048700
     68 H5G         -2.0870    -1.6660   -10.2760 h1         1 ABC       0.062700
     69 H6G1        -1.7040    -0.8530   -12.6240 hc         1 ABC       0.044700
     70 H6G2        -2.8380    -2.2090   -12.6070 hc         1 ABC       0.044700
     71 H6G3        -3.4420    -0.5570   -12.8190 hc         1 ABC       0.044700
     72 HO2G        -3.2400     1.1920    -6.7730 ho         1 ABC       0.540000
     73 HO3G        -5.7030    -0.9260    -7.3420 ho         1 ABC       0.457000
     74 HO4G        -5.3200    -3.0020    -9.8730 ho         1 ABC       0.503000
     75 H1H          2.5820     2.0640    -5.7450 h2         1 ABC       0.085700
     76 H2H          0.5950     3.0780    -6.7090 h1         1 ABC       0.063700
     77 H3H         -0.8740     0.5680    -5.7650 h1         1 ABC       0.066700
     78 H4H         -0.2450     1.6080    -8.5860 h1         1 ABC       0.059700
     79 H5H          0.7280    -0.8670    -7.0560 h1         1 ABC       0.072700
     80 H6H1         0.5070    -1.3020    -9.4850 h1         1 ABC       0.037700
     81 H6H2         1.3990     0.1780    -9.8570 h1         1 ABC       0.037700
     82 HHO2         0.9530     2.7860    -4.1370 ho         1 ABC       0.543000
     83 HHO3        -1.7810     2.8520    -5.7220 ho         1 ABC       0.530000
     84 HHO6         2.7720    -1.6550    -9.9920 ho         1 ABC       0.505000
     85 H1I          4.5780    -0.3970    -0.7170 h1         1 ABC       0.046700
     86 H2I          4.5540     1.3460    -2.2880 h1         1 ABC       0.047700
     87 H3I          1.5210     1.0050    -2.3640 h1         1 ABC       0.085700
     88 H4I          3.6760     0.6350    -4.5140 h1         1 ABC       0.059700
     89 H6I1         1.7860    -2.6240    -4.4080 h1         1 ABC       0.044200
     90 H6I2         2.8790    -1.7980    -5.5280 h1         1 ABC       0.044200
     91 H7I          3.5250    -2.3360    -1.8520 ha         1 ABC       0.203000
     92 HO2I         3.8580     1.8420     0.0530 ho         1 ABC       0.455000
     93 HO3I         2.7030     3.1980    -2.4780 ho         1 ABC       0.533000
     94 HO6I         3.6210    -3.9080    -5.0270 ho         1 ABC       0.451000
     95 H2J          4.9090    -0.8720     3.2760 h1         1 ABC       0.056700
     96 H3J          2.6110     0.9240     2.3470 h1         1 ABC       0.055700
     97 H4J          3.9010    -1.5370     1.0340 h1         1 ABC       0.074700
     98 H5J          1.0910    -1.0710     2.1710 h1         1 ABC       0.040700
     99 H6J1         0.7830    -3.5350     1.7750 hc         1 ABC       0.049367
    100 H6J2         1.0010    -2.6690     0.2490 hc         1 ABC       0.049367
    101 H6J3         2.3430    -3.6020     0.9320 hc         1 ABC       0.049367
    102 HO2J         3.5940     1.0790     4.8650 ho         1 ABC       0.512000
    103 HO3J         5.0060     1.5140     2.2990 ho         1 ABC       0.462000
    104 HN1          2.1070     0.5430     0.0110 hn         1 ABC       0.433000
    105 H2K          0.1990    -2.7400     7.6030 h1         1 ABC       0.091700
    106 H3K          1.4670     0.0260     7.2930 h1         1 ABC       0.054700
    107 H4K          0.7690    -2.0910     5.1770 h1         1 ABC       0.070700
    108 H5K         -0.4110     0.6900     5.7250 h1         1 ABC       0.073700
    109 H6K1        -0.4340     0.1730     3.3230 h1         1 ABC       0.034200
    110 H6K2        -1.1110    -1.4320     3.6310 h1         1 ABC       0.034200
    111 HO2K        -0.0200    -1.4160     9.8520 ho         1 ABC       0.537000
    112 HO3K         2.6220    -1.8920     8.1800 ho         1 ABC       0.521000
    113 HO6K        -2.7480     0.0360     2.9720 ho         1 ABC       0.504000
    114 H1L         -2.1360     2.8310    11.7110 h2         1 ABC       0.028700
    115 H2L         -3.7210     0.2110    11.2950 h1         1 ABC       0.070700
    116 H3L         -0.7720     0.8910    10.8580 h1         1 ABC       0.054700
    117 H4L         -3.0150     0.1780     8.8810 h1         1 ABC       0.066700
    118 H5L         -1.4890     2.8070     9.3390 h1         1 ABC       0.046700
    119 H6L1        -3.1810     3.7760     7.7550 hc         1 ABC       0.057700
    120 H6L2        -2.2090     2.5390     6.9450 hc         1 ABC       0.057700
    121 H6L3        -3.8590     2.1620     7.4670 hc         1 ABC       0.057700
    122 HO2L        -3.0480     0.8650    13.5320 ho         1 ABC       0.526000
    123 HO3L        -1.6070    -1.2650    11.7120 ho         1 ABC       0.528000
    124 H1J          3.4270    -1.6610     5.0060 h2         1 ABC       0.094700
    125 H1K         -1.8170    -1.5800     8.2770 h2         1 ABC       0.084700
    126 O1L         -4.1340     2.6830    12.2210 oh         1 ABC      -0.705000
    127 HO1L        -4.6530     3.2300    11.5900 ho         1 ABC       0.523000
@<TRIPOS>BOND
     1     1     2 1   
     2     1     7 1   
     3     1    20 1   
     4     1    64 1   
     5     2     3 1   
     6     2     8 1   
     7     2    65 1   
     8     3     4 1   
     9     3     9 1   
    10     3    66 1   
    11     4     5 1   
    12     4    10 1   
    13     4    67 1   
    14     5     6 1   
    15     5     7 1   
    16     5    68 1   
    17     6    69 1   
    18     6    70 1   
    19     6    71 1   
    20     8    72 1   
    21     9    73 1   
    22    10    74 1   
    23    11    12 1   
    24    11    17 1   
    25    11    31 1   
    26    11    75 1   
    27    12    13 1   
    28    12    18 1   
    29    12    76 1   
    30    13    14 1   
    31    13    19 1   
    32    13    77 1   
    33    14    15 1   
    34    14    20 1   
    35    14    78 1   
    36    15    16 1   
    37    15    17 1   
    38    15    79 1   
    39    16    21 1   
    40    16    80 1   
    41    16    81 1   
    42    18    82 1   
    43    19    83 1   
    44    21    84 1   
    45    22    23 1   
    46    22    28 1   
    47    22    42 1   
    48    22    85 1   
    49    23    24 1   
    50    23    29 1   
    51    23    86 1   
    52    24    25 1   
    53    24    30 1   
    54    24    87 1   
    55    25    26 1   
    56    25    31 1   
    57    25    88 1   
    58    26    27 1   
    59    26    28 2   
    60    27    32 1   
    61    27    89 1   
    62    27    90 1   
    63    28    91 1   
    64    29    92 1   
    65    30    93 1   
    66    32    94 1   
    67    33    34 1   
    68    33    39 1   
    69    33    52 1   
    70    33   124 1   
    71    34    35 1   
    72    34    40 1   
    73    34    95 1   
    74    35    36 1   
    75    35    41 1   
    76    35    96 1   
    77    36    37 1   
    78    36    42 1   
    79    36    97 1   
    80    37    38 1   
    81    37    39 1   
    82    37    98 1   
    83    38    99 1   
    84    38   100 1   
    85    38   101 1   
    86    40   102 1   
    87    41   103 1   
    88    42   104 1   
    89    43    44 1   
    90    43    49 1   
    91    43    63 1   
    92    43   125 1   
    93    44    45 1   
    94    44    50 1   
    95    44   105 1   
    96    45    46 1   
    97    45    51 1   
    98    45   106 1   
    99    46    47 1   
   100    46    52 1   
   101    46   107 1   
   102    47    48 1   
   103    47    49 1   
   104    47   108 1   
   105    48    53 1   
   106    48   109 1   
   107    48   110 1   
   108    50   111 1   
   109    51   112 1   
   110    53   113 1   
   111    54    55 1   
   112    54    60 1   
   113    54   114 1   
   114    54   126 1   
   115    55    56 1   
   116    55    61 1   
   117    55   115 1   
   118    56    57 1   
   119    56    62 1   
   120    56   116 1   
   121    57    58 1   
   122    57    63 1   
   123    57   117 1   
   124    58    59 1   
   125    58    60 1   
   126    58   118 1   
   127    59   119 1   
   128    59   120 1   
   129    59   121 1   
   130    61   122 1   
   131    62   123 1   
   132   126   127 1   
@<TRIPOS>SUBSTRUCTURE
     1 ABC         1 TEMP              0 ****  ****    0 ROOT
