@<TRIPOS>MOLECULE
ABC
  127   132     1     0     0
SMALL
abcg2


@<TRIPOS>ATOM
      1 C1G         -2.5900    -0.1770    -7.5750 c6         1 ABC       0.364300
      2 C2G         -4.0110    -0.1150    -7.0150 c6         1 ABC       0.112300
      3 C3G         -4.2920    -1.3360    -6.1370 c6         1 ABC       0.150300
      4 C4G         -4.0340    -2.5930    -6.9510 c6         1 ABC       0.151300
      5 C5G         -2.6080    -2.5580    -7.5180 c6         1 ABC       0.132300
      6 C6G         -2.3190    -3.7210    -8.4430 c3         1 ABC      -0.092100
      7 O5G         -2.4000    -1.3670    -8.2730 os         1 ABC      -0.468000
      8 O2G         -4.2820     1.0880    -6.3450 oh         1 ABC      -0.729000
      9 O3G         -5.6280    -1.3420    -5.6980 oh         1 ABC      -0.645000
     10 O4G         -4.2170    -3.7130    -6.1180 oh         1 ABC      -0.698000
     11 C1H          1.7840     1.9790    -5.4860 c6         1 ABC       0.356300
     12 C2H          0.4740     2.7670    -5.4080 c6         1 ABC       0.124300
     13 C3H         -0.7030     1.7990    -5.3960 c6         1 ABC       0.152300
     14 C4H         -0.6290     0.8760    -6.6060 c6         1 ABC       0.159300
     15 C5H          0.7290     0.1630    -6.6140 c6         1 ABC       0.151300
     16 C6H          0.9480    -0.6800    -7.8520 c3         1 ABC       0.164600
     17 O5H          1.7700     1.1270    -6.5890 os         1 ABC      -0.451000
     18 O2H          0.3970     3.6100    -4.2890 oh         1 ABC      -0.738000
     19 O3H         -1.9340     2.4890    -5.4480 oh         1 ABC      -0.732000
     20 O4H         -1.6880    -0.0500    -6.5110 os         1 ABC      -0.494000
     21 O6H          2.1900    -1.3330    -7.7330 oh         1 ABC      -0.717000
     22 C1I          4.4490     0.8050    -1.0190 c6         1 ABC       0.194700
     23 C2I          4.4190     2.1940    -1.6620 c6         1 ABC       0.138300
     24 C3I          3.1630     2.3200    -2.5080 c6         1 ABC       0.153300
     25 C4I          3.2380     1.3510    -3.6740 c6         1 ABC       0.221500
     26 C5I          3.6890    -0.0230    -3.2580 c2         1 ABC      -0.118400
     27 C6I          3.4810    -1.0910    -4.2910 c3         1 ABC       0.200800
     28 C7I          4.2720    -0.2440    -2.0830 c2         1 ABC      -0.190200
     29 O2I          4.3990     3.2320    -0.7060 oh         1 ABC      -0.670000
     30 O3I          3.0060     3.6170    -3.0550 oh         1 ABC      -0.748000
     31 O4I          1.9670     1.2780    -4.2950 os         1 ABC      -0.484000
     32 O6I          4.2240    -2.2400    -3.9750 oh         1 ABC      -0.667000
     33 C1J          1.9640    -2.0250     2.8330 c6         1 ABC       0.364300
     34 C2J          3.4720    -1.7700     2.8360 c6         1 ABC       0.119300
     35 C3J          3.8000    -0.4810     2.0960 c6         1 ABC       0.145300
     36 C4J          3.2150    -0.5270     0.6880 c6         1 ABC       0.159500
     37 C5J          1.7200    -0.8740     0.7390 c6         1 ABC       0.177300
     38 C6J          1.1530    -1.1610    -0.6360 c3         1 ABC      -0.083100
     39 O5J          1.4760    -2.0350     1.5270 os         1 ABC      -0.473000
     40 O2J          3.9980    -1.6790     4.1370 oh         1 ABC      -0.711000
     41 O3J          5.1910    -0.2910     1.9910 oh         1 ABC      -0.670000
     42 N1J          3.3810     0.7240    -0.0290 n7         1 ABC      -0.880400
     43 C1K         -2.2640    -0.4620     5.5710 c6         1 ABC       0.368300
     44 C2K         -1.8990    -1.9160     5.2830 c6         1 ABC       0.107300
     45 C3K         -0.4010    -2.0460     4.9940 c6         1 ABC       0.117300
     46 C4K         -0.0240    -1.1040     3.8530 c6         1 ABC       0.154300
     47 C5K         -0.4710     0.3200     4.2230 c6         1 ABC       0.166300
     48 C6K         -0.2360     1.3150     3.1060 c3         1 ABC       0.169600
     49 O5K         -1.8600     0.3410     4.5090 os         1 ABC      -0.445000
     50 O2K         -2.3140    -2.7940     6.2950 oh         1 ABC      -0.728000
     51 O3K         -0.0900    -3.3720     4.6370 oh         1 ABC      -0.724000
     52 O4K          1.3700    -1.0400     3.6350 os         1 ABC      -0.477000
     53 O6K         -0.6370     2.5900     3.5460 oh         1 ABC      -0.714000
     54 C1L         -2.3990     1.8480    10.3210 c6         1 ABC       0.365300
     55 C2L         -2.7280     0.3580    10.2960 c6         1 ABC       0.113300
     56 C3L         -2.0610    -0.2750     9.0850 c6         1 ABC       0.164300
     57 C4L         -2.4320     0.4710     7.8100 c6         1 ABC       0.157300
     58 C5L         -2.1560     1.9720     7.9750 c6         1 ABC       0.166300
     59 C6L         -2.6260     2.7980     6.7970 c3         1 ABC      -0.095100
     60 O5L         -2.8390     2.4420     9.1240 os         1 ABC      -0.484000
     61 O2L         -2.2420    -0.3040    11.4370 oh         1 ABC      -0.725000
     62 O3L         -2.4370    -1.6250     8.9270 oh         1 ABC      -0.727000
     63 O4L         -1.6540    -0.0750     6.7690 os         1 ABC      -0.498000
     64 H1G         -2.4370     0.6280    -8.3030 h2         1 ABC       0.081700
     65 H2G         -4.6930    -0.1560    -7.8720 h1         1 ABC       0.085700
     66 H3G         -3.6010    -1.3290    -5.2780 h1         1 ABC       0.056700
     67 H4G         -4.7400    -2.6110    -7.7960 h1         1 ABC       0.048700
     68 H5G         -1.9030    -2.5940    -6.6760 h1         1 ABC       0.062700
     69 H6G1        -1.3150    -3.6400    -8.8600 hc         1 ABC       0.044700
     70 H6G2        -2.3620    -4.6660    -7.9020 hc         1 ABC       0.044700
     71 H6G3        -3.0320    -3.7650    -9.2680 hc         1 ABC       0.044700
     72 HO2G        -3.4910     1.3940    -5.8700 ho         1 ABC       0.540000
     73 HO3G        -5.7800    -0.5140    -5.2310 ho         1 ABC       0.457000
     74 HO4G        -4.3490    -4.4880    -6.6700 ho         1 ABC       0.503000
     75 H1H          2.6180     2.6680    -5.6630 h2         1 ABC       0.085700
     76 H2H          0.4150     3.3630    -6.3310 h1         1 ABC       0.063700
     77 H3H         -0.6500     1.1840    -4.4870 h1         1 ABC       0.066700
     78 H4H         -0.7230     1.4780    -7.5220 h1         1 ABC       0.059700
     79 H5H          0.7870    -0.4890    -5.7320 h1         1 ABC       0.072700
     80 H6H1         0.1270    -1.3970    -7.9390 h1         1 ABC       0.037700
     81 H6H2         0.9080    -0.0340    -8.7400 h1         1 ABC       0.037700
     82 HHO2         1.2690     3.6980    -3.8690 ho         1 ABC       0.543000
     83 HHO3        -2.0470     2.9730    -4.6230 ho         1 ABC       0.530000
     84 HHO6         2.2970    -1.9040    -8.4990 ho         1 ABC       0.505000
     85 H1I          5.4420     0.6630    -0.5660 h1         1 ABC       0.046700
     86 H2I          5.3020     2.2850    -2.3110 h1         1 ABC       0.047700
     87 H3I          2.2990     2.0560    -1.8860 h1         1 ABC       0.085700
     88 H4I          3.9740     1.7350    -4.3980 h1         1 ABC       0.059700
     89 H6I1         2.4070    -1.3120    -4.3410 h1         1 ABC       0.044200
     90 H6I2         3.7510    -0.6940    -5.2800 h1         1 ABC       0.044200
     91 H7I          4.6350    -1.2380    -1.8540 ha         1 ABC       0.203000
     92 HO2I         5.2830     3.3290    -0.3380 ho         1 ABC       0.455000
     93 HO3I         3.0320     4.2550    -2.3320 ho         1 ABC       0.533000
     94 HO6I         3.9320    -2.9490    -4.5540 ho         1 ABC       0.451000
     95 H2J          3.9310    -2.6020     2.2840 h1         1 ABC       0.056700
     96 H3J          3.3380     0.3620     2.6370 h1         1 ABC       0.055700
     97 H4J          3.7210    -1.3330     0.1450 h1         1 ABC       0.074700
     98 H5J          1.1870    -0.0140     1.1630 h1         1 ABC       0.040700
     99 H6J1         0.0870    -1.3870    -0.5760 hc         1 ABC       0.049367
    100 H6J2         1.2820    -0.2990    -1.2870 hc         1 ABC       0.049367
    101 H6J3         1.6600    -2.0090    -1.1000 hc         1 ABC       0.049367
    102 HO2J         4.1050    -2.5660     4.4920 ho         1 ABC       0.512000
    103 HO3J         5.5520    -0.2460     2.8830 ho         1 ABC       0.462000
    104 HN1          3.4790     1.4920     0.6220 hn         1 ABC       0.433000
    105 H2K         -2.4400    -2.2120     4.3760 h1         1 ABC       0.091700
    106 H3K          0.1670    -1.7440     5.8880 h1         1 ABC       0.054700
    107 H4K         -0.5530    -1.4170     2.9410 h1         1 ABC       0.070700
    108 H5K          0.1030     0.6480     5.1010 h1         1 ABC       0.073700
    109 H6K1         0.8290     1.2990     2.8510 h1         1 ABC       0.034200
    110 H6K2        -0.7910     0.9960     2.2120 h1         1 ABC       0.034200
    111 HO2K        -2.1290    -2.4080     7.1670 ho         1 ABC       0.537000
    112 HO3K        -0.3990    -3.9440     5.3490 ho         1 ABC       0.521000
    113 HO6K        -0.3940     3.2270     2.8690 ho         1 ABC       0.504000
    114 H1L         -1.3070     1.9780    10.4160 h2         1 ABC       0.028700
    115 H2L         -3.8190     0.2490    10.2000 h1         1 ABC       0.070700
    116 H3L         -0.9700    -0.1940     9.2140 h1         1 ABC       0.054700
    117 H4L         -3.5050     0.3320     7.6070 h1         1 ABC       0.066700
    118 H5L         -1.0710     2.1080     8.1060 h1         1 ABC       0.046700
    119 H6L1        -2.4170     3.8540     6.9680 hc         1 ABC       0.057700
    120 H6L2        -2.1170     2.5060     5.8810 hc         1 ABC       0.057700
    121 H6L3        -3.7000     2.6820     6.6420 hc         1 ABC       0.057700
    122 HO2L        -2.7790    -0.0460    12.1920 ho         1 ABC       0.526000
    123 HO3L        -2.0880    -2.1330     9.6670 ho         1 ABC       0.528000
    124 H1J          1.7530    -3.0250     3.2210 h2         1 ABC       0.094700
    125 H1K         -3.3530    -0.3510     5.6400 h2         1 ABC       0.084700
    126 O1L         -3.0730     2.4280    11.3750 oh         1 ABC      -0.705000
    127 HO1L        -2.6450     3.2570    11.6160 ho         1 ABC       0.523000
@<TRIPOS>BOND
     1     1     2 1   
     2     1     7 1   
     3     1    20 1   
     4     1    64 1   
     5     2     3 1   
     6     2     8 1   
     7     2    65 1   
     8     3     4 1   
     9     3     9 1   
    10     3    66 1   
    11     4     5 1   
    12     4    10 1   
    13     4    67 1   
    14     5     6 1   
    15     5     7 1   
    16     5    68 1   
    17     6    69 1   
    18     6    70 1   
    19     6    71 1   
    20     8    72 1   
    21     9    73 1   
    22    10    74 1   
    23    11    12 1   
    24    11    17 1   
    25    11    31 1   
    26    11    75 1   
    27    12    13 1   
    28    12    18 1   
    29    12    76 1   
    30    13    14 1   
    31    13    19 1   
    32    13    77 1   
    33    14    15 1   
    34    14    20 1   
    35    14    78 1   
    36    15    16 1   
    37    15    17 1   
    38    15    79 1   
    39    16    21 1   
    40    16    80 1   
    41    16    81 1   
    42    18    82 1   
    43    19    83 1   
    44    21    84 1   
    45    22    23 1   
    46    22    28 1   
    47    22    42 1   
    48    22    85 1   
    49    23    24 1   
    50    23    29 1   
    51    23    86 1   
    52    24    25 1   
    53    24    30 1   
    54    24    87 1   
    55    25    26 1   
    56    25    31 1   
    57    25    88 1   
    58    26    27 1   
    59    26    28 2   
    60    27    32 1   
    61    27    89 1   
    62    27    90 1   
    63    28    91 1   
    64    29    92 1   
    65    30    93 1   
    66    32    94 1   
    67    33    34 1   
    68    33    39 1   
    69    33    52 1   
    70    33   124 1   
    71    34    35 1   
    72    34    40 1   
    73    34    95 1   
    74    35    36 1   
    75    35    41 1   
    76    35    96 1   
    77    36    37 1   
    78    36    42 1   
    79    36    97 1   
    80    37    38 1   
    81    37    39 1   
    82    37    98 1   
    83    38    99 1   
    84    38   100 1   
    85    38   101 1   
    86    40   102 1   
    87    41   103 1   
    88    42   104 1   
    89    43    44 1   
    90    43    49 1   
    91    43    63 1   
    92    43   125 1   
    93    44    45 1   
    94    44    50 1   
    95    44   105 1   
    96    45    46 1   
    97    45    51 1   
    98    45   106 1   
    99    46    47 1   
   100    46    52 1   
   101    46   107 1   
   102    47    48 1   
   103    47    49 1   
   104    47   108 1   
   105    48    53 1   
   106    48   109 1   
   107    48   110 1   
   108    50   111 1   
   109    51   112 1   
   110    53   113 1   
   111    54    55 1   
   112    54    60 1   
   113    54   114 1   
   114    54   126 1   
   115    55    56 1   
   116    55    61 1   
   117    55   115 1   
   118    56    57 1   
   119    56    62 1   
   120    56   116 1   
   121    57    58 1   
   122    57    63 1   
   123    57   117 1   
   124    58    59 1   
   125    58    60 1   
   126    58   118 1   
   127    59   119 1   
   128    59   120 1   
   129    59   121 1   
   130    61   122 1   
   131    62   123 1   
   132   126   127 1   
@<TRIPOS>SUBSTRUCTURE
     1 ABC         1 TEMP              0 ****  ****    0 ROOT
