@<TRIPOS>MOLECULE
ABE
   22    22     1     0     0
SMALL
No Charge or Current Charge


@<TRIPOS>ATOM
      1 C1          13.7000    -9.3460    60.7540 c6         1 ABE       0.389300
      2 C2          14.9250    -8.3750    60.9970 c6         1 ABE       0.154300
      3 C3          14.4400    -6.9560    61.4080 c6         1 ABE      -0.107400
      4 C4          13.4080    -6.4140    60.3860 c6         1 ABE       0.150300
      5 C5          12.2450    -7.4570    60.2370 c6         1 ABE       0.139300
      6 C6          11.1740    -7.0470    59.1930 c3         1 ABE      -0.093100
      7 O1          12.9730    -9.6430    61.9490 oh         1 ABE      -0.663000
      8 O2          15.8670    -8.8880    61.9670 oh         1 ABE      -0.704000
      9 O4          14.0810    -6.1600    59.1380 oh         1 ABE      -0.716000
     10 O5          12.7600    -8.7530    59.8310 os         1 ABE      -0.480000
     11 H1          14.0830   -10.2830    60.3180 h2         1 ABE       0.071700
     12 H2          15.4370    -8.2810    60.0270 h1         1 ABE       0.057700
     13 H31         13.9800    -6.9940    62.4050 hc         1 ABE       0.062700
     14 H32         15.2910    -6.2650    61.4820 hc         1 ABE       0.062700
     15 H4          12.9890    -5.4750    60.7770 h1         1 ABE       0.034700
     16 H5          11.7330    -7.5550    61.2070 h1         1 ABE       0.049700
     17 H61         10.3380    -7.7560    59.1960 hc         1 ABE       0.044700
     18 H62         10.7640    -6.0550    59.4180 hc         1 ABE       0.044700
     19 H63         11.5830    -7.0220    58.1760 hc         1 ABE       0.044700
     20 HO1         12.1890   -10.1430    61.6430 ho         1 ABE       0.450000
     21 HO2         16.6210    -8.2540    61.9950 ho         1 ABE       0.503000
     22 HO4         13.3900    -5.8950    58.4890 ho         1 ABE       0.504000
@<TRIPOS>BOND
     1     1     2 1   
     2     1     7 1   
     3     1    10 1   
     4     1    11 1   
     5     2     3 1   
     6     2     8 1   
     7     2    12 1   
     8     3     4 1   
     9     3    13 1   
    10     3    14 1   
    11     4     5 1   
    12     4     9 1   
    13     4    15 1   
    14     5     6 1   
    15     5    10 1   
    16     5    16 1   
    17     6    17 1   
    18     6    18 1   
    19     6    19 1   
    20     7    20 1   
    21     8    21 1   
    22     9    22 1   
@<TRIPOS>SUBSTRUCTURE
     1 ABE         1 TEMP              0 ****  ****    0 ROOT
