@<TRIPOS>MOLECULE
ABE
   22    22     1     0     0
SMALL
bcc


@<TRIPOS>ATOM
      1 C1          13.6680    -9.2940    60.7810 c6         1 ABE       0.342900
      2 C2          14.8640    -8.3640    60.9620 c6         1 ABE       0.131100
      3 C3          14.3950    -6.9730    61.3730 c6         1 ABE      -0.107400
      4 C4          13.3710    -6.4280    60.3880 c6         1 ABE       0.127100
      5 C5          12.2480    -7.4530    60.2120 c6         1 ABE       0.116100
      6 C6          11.2420    -7.0700    59.1450 c3         1 ABE      -0.093100
      7 O1          13.0940    -9.5350    62.0250 oh         1 ABE      -0.600800
      8 O2          15.7360    -8.9430    61.9040 oh         1 ABE      -0.581800
      9 O4          14.0440    -6.1330    59.1820 oh         1 ABE      -0.593800
     10 O5          12.7620    -8.7340    59.8660 os         1 ABE      -0.433600
     11 H1          13.9930   -10.2300    60.3100 h2         1 ABE       0.071700
     12 H2          15.3480    -8.2980    59.9790 h1         1 ABE       0.057700
     13 H31         13.9430    -7.0150    62.3670 hc         1 ABE       0.062700
     14 H32         15.2480    -6.2910    61.4400 hc         1 ABE       0.062700
     15 H4          12.9160    -5.5210    60.8100 h1         1 ABE       0.034700
     16 H5          11.7210    -7.5050    61.1740 h1         1 ABE       0.049700
     17 H61         10.4090    -7.7740    59.1240 hc         1 ABE       0.044700
     18 H62         10.8320    -6.0810    59.3530 hc         1 ABE       0.044700
     19 H63         11.6870    -7.0540    58.1480 hc         1 ABE       0.044700
     20 HO1         12.4520   -10.2480    61.9370 ho         1 ABE       0.411000
     21 HO2         16.5500    -8.4290    61.9070 ho         1 ABE       0.404000
     22 HO4         13.4500    -5.6460    58.6040 ho         1 ABE       0.405000
@<TRIPOS>BOND
     1     1     2 1   
     2     1     7 1   
     3     1    10 1   
     4     1    11 1   
     5     2     3 1   
     6     2     8 1   
     7     2    12 1   
     8     3     4 1   
     9     3    13 1   
    10     3    14 1   
    11     4     5 1   
    12     4     9 1   
    13     4    15 1   
    14     5     6 1   
    15     5    10 1   
    16     5    16 1   
    17     6    17 1   
    18     6    18 1   
    19     6    19 1   
    20     7    20 1   
    21     8    21 1   
    22     9    22 1   
@<TRIPOS>SUBSTRUCTURE
     1 ABE         1 TEMP              0 ****  ****    0 ROOT
