@<TRIPOS>MOLECULE
ABI
   21    22     1     0     0
SMALL
No Charge or Current Charge


@<TRIPOS>ATOM
      1 C1          -1.1590     0.0980    -0.0570 ca         1 ABI      -0.254900
      2 C2          -0.7200     1.4280    -0.3230 ca         1 ABI      -0.103000
      3 C3           0.6560     1.7420    -0.3720 ca         1 ABI      -0.025000
      4 C4           1.5830     0.7160    -0.1510 ca         1 ABI       0.128400
      5 C5           1.1610    -0.5540     0.1030 ca         1 ABI      -0.102200
      6 C6          -0.1900    -0.9160     0.1600 ca         1 ABI      -0.042000
      7 C7          -2.6130    -0.2270    -0.0070 ce         1 ABI       0.525400
      8 C8           3.3770    -0.4640     0.1140 cc         1 ABI       0.472700
      9 N1          -3.0470    -1.4520    -0.4330 nv         1 ABI      -0.573200
     10 N2          -3.4970     0.7050     0.4620 nv         1 ABI      -0.557300
     11 N3           2.9740     0.7990    -0.1510 nd         1 ABI      -0.554100
     12 N4           2.2810    -1.3110     0.2740 na         1 ABI      -0.302600
     13 HC2         -1.4410     2.2220    -0.5070 ha         1 ABI       0.125000
     14 HC3          0.9930     2.7550    -0.5770 ha         1 ABI       0.162000
     15 HC6         -0.4740    -1.9430     0.3800 ha         1 ABI       0.127000
     16 HC8          4.4000    -0.8110     0.1980 h5         1 ABI       0.089800
     17 HH11        -4.0360    -1.5780    -0.6030 hn         1 ABI       0.377000
     18 HH12        -2.4050    -2.0180    -0.9710 hn         1 ABI       0.377000
     19 HH21        -3.1160     1.4990     0.9590 hn         1 ABI       0.377000
     20 HH22        -4.4320     0.4080     0.7030 hn         1 ABI       0.377000
     21 HN4          2.3310    -2.3010     0.4780 hn         1 ABI       0.377000
@<TRIPOS>BOND
     1     1     2 ar  
     2     1     6 ar  
     3     1     7 1   
     4     2     3 ar  
     5     2    13 1   
     6     3     4 ar  
     7     3    14 1   
     8     4     5 ar  
     9     4    11 1   
    10     5     6 ar  
    11     5    12 1   
    12     6    15 1   
    13     7     9 2   
    14     7    10 1   
    15     8    11 2   
    16     8    12 1   
    17     8    16 1   
    18     9    17 1   
    19     9    18 1   
    20    10    19 1   
    21    10    20 1   
    22    12    21 1   
@<TRIPOS>SUBSTRUCTURE
     1 ABI         1 TEMP              0 ****  ****    0 ROOT
