@<TRIPOS>MOLECULE
ABI
   21    22     1     0     0
SMALL
abcg2


@<TRIPOS>ATOM
      1 C1          -1.1310     0.0870    -0.0550 ca         1 ABI      -0.254900
      2 C2          -0.7140     1.4090    -0.3060 ca         1 ABI      -0.103000
      3 C3           0.6230     1.7380    -0.3580 ca         1 ABI      -0.025000
      4 C4           1.5590     0.7260    -0.1480 ca         1 ABI       0.128400
      5 C5           1.1230    -0.5900     0.1020 ca         1 ABI      -0.102200
      6 C6          -0.2150    -0.9390     0.1510 ca         1 ABI      -0.042000
      7 C7          -2.5670    -0.2180    -0.0090 ce         1 ABI       0.525400
      8 C8           3.3030    -0.4480     0.1110 cc         1 ABI       0.472700
      9 N1          -2.9960    -1.3660    -0.4780 nv         1 ABI      -0.573200
     10 N2          -3.3980     0.6600     0.4990 nv         1 ABI      -0.557300
     11 N3           2.9270     0.7770    -0.1360 nd         1 ABI      -0.554100
     12 N4           2.2730    -1.3090     0.2660 na         1 ABI      -0.302600
     13 HC2         -1.4510     2.1780    -0.4930 ha         1 ABI       0.125000
     14 HC3          0.9370     2.7530    -0.5640 ha         1 ABI       0.162000
     15 HC6         -0.5260    -1.9520     0.3710 ha         1 ABI       0.127000
     16 HC8          4.3270    -0.7800     0.1910 h5         1 ABI       0.089800
     17 HH11        -3.9640    -1.6430    -0.4160 hn         1 ABI       0.377000
     18 HH12        -2.3810    -1.9760    -0.9910 hn         1 ABI       0.377000
     19 HH21        -3.0580     1.4740     0.9840 hn         1 ABI       0.377000
     20 HH22        -4.3960     0.5140     0.5010 hn         1 ABI       0.377000
     21 HN4          2.3520    -2.2960     0.4540 hn         1 ABI       0.377000
@<TRIPOS>BOND
     1     1     2 ar  
     2     1     6 ar  
     3     1     7 1   
     4     2     3 ar  
     5     2    13 1   
     6     3     4 ar  
     7     3    14 1   
     8     4     5 ar  
     9     4    11 1   
    10     5     6 ar  
    11     5    12 1   
    12     6    15 1   
    13     7     9 2   
    14     7    10 1   
    15     8    11 2   
    16     8    12 1   
    17     8    16 1   
    18     9    17 1   
    19     9    18 1   
    20    10    19 1   
    21    10    20 1   
    22    12    21 1   
@<TRIPOS>SUBSTRUCTURE
     1 ABI         1 TEMP              0 ****  ****    0 ROOT
