@<TRIPOS>MOLECULE
ABJ
   35    37     1     0     0
SMALL
abcg2


@<TRIPOS>ATOM
      1 C19         47.1010    16.1220    33.5100 c3         1 ABJ      -0.104100
      2 C14         47.1110    15.9660    31.9970 c3         1 ABJ       0.111300
      3 C20         46.4270    17.1270    31.2890 c3         1 ABJ      -0.104100
      4 N11         46.5020    14.7000    31.6110 na         1 ABJ      -0.017100
      5 N15         45.2600    14.3920    32.0020 nc         1 ABJ      -0.518100
      6 C7          47.0250    13.7360    30.8330 ca         1 ABJ       0.156500
      7 N3          48.2380    13.7240    30.2710 nb         1 ABJ      -0.234000
      8 C6          48.4580    12.6190    29.5910 ca         1 ABJ       0.196900
      9 N5          47.6580    11.5650    29.4380 nb         1 ABJ      -0.315000
     10 C2          46.4530    11.5770    30.0130 ca         1 ABJ       0.458900
     11 N1          45.6890    10.4930    29.8790 nv         1 ABJ      -1.068900
     12 C4          46.0560    12.7320    30.7290 ca         1 ABJ      -0.379900
     13 C13         44.9590    13.2200    31.4910 cd         1 ABJ       0.426500
     14 C18         43.6480    12.6110    31.7450 ca         1 ABJ      -0.055900
     15 C28         43.1120    12.6450    33.0310 ca         1 ABJ      -0.180000
     16 C27         42.9240    12.0250    30.7090 ca         1 ABJ      -0.152000
     17 C30         41.6830    11.4600    30.9740 ca         1 ABJ      -0.079000
     18 C26         41.1510    11.4790    32.2520 ca         1 ABJ      -0.140000
     19 C29         41.8670    12.0810    33.2860 ca         1 ABJ       0.139100
     20 O33         41.3120    12.0840    34.5130 oh         1 ABJ      -0.533100
     21 H201        45.3810    17.2070    31.5870 hc         1 ABJ       0.048367
     22 H202        46.9240    18.0620    31.5490 hc         1 ABJ       0.048367
     23 H203        46.4710    17.0110    30.2060 hc         1 ABJ       0.048367
     24 H14         48.1440    15.8960    31.6540 h1         1 ABJ       0.082700
     25 H191        47.5910    15.2800    34.0000 hc         1 ABJ       0.048367
     26 H192        47.6360    17.0310    33.7860 hc         1 ABJ       0.048367
     27 H193        46.0840    16.2000    33.8930 hc         1 ABJ       0.048367
     28 H6          49.4190    12.5470    29.0920 h5         1 ABJ       0.045100
     29 H11N        44.8270    10.3870    30.3850 hn         1 ABJ       0.504000
     30 H12N        46.0620     9.6810    29.4150 hn         1 ABJ       0.504000
     31 H28         43.6780    13.1020    33.8340 ha         1 ABJ       0.126000
     32 H27         43.3040    12.0410    29.6950 ha         1 ABJ       0.124000
     33 H30         41.1190    11.0060    30.1700 ha         1 ABJ       0.117000
     34 H26         40.1840    11.0360    32.4540 ha         1 ABJ       0.130000
     35 H33         41.8840    12.5390    35.1410 ho         1 ABJ       0.467000
@<TRIPOS>BOND
     1     1     2 1   
     2     1    25 1   
     3     1    26 1   
     4     1    27 1   
     5     2     3 1   
     6     2     4 1   
     7     2    24 1   
     8     3    21 1   
     9     3    22 1   
    10     3    23 1   
    11     4     5 1   
    12     4     6 1   
    13     5    13 2   
    14     6     7 ar  
    15     6    12 ar  
    16     7     8 ar  
    17     8     9 ar  
    18     8    28 1   
    19     9    10 ar  
    20    10    11 1   
    21    10    12 ar  
    22    11    29 1   
    23    11    30 1   
    24    12    13 1   
    25    13    14 1   
    26    14    15 ar  
    27    14    16 ar  
    28    15    19 ar  
    29    15    31 1   
    30    16    17 ar  
    31    16    32 1   
    32    17    18 ar  
    33    17    33 1   
    34    18    19 ar  
    35    18    34 1   
    36    19    20 1   
    37    20    35 1   
@<TRIPOS>SUBSTRUCTURE
     1 ABJ         1 TEMP              0 ****  ****    0 ROOT
