@<TRIPOS>MOLECULE
ABJ
   35    37     1     0     0
SMALL
No Charge or Current Charge


@<TRIPOS>ATOM
      1 C19         47.4800    16.1640    33.4010 c3         1 ABJ      -0.104100
      2 C14         47.1250    16.0850    31.9000 c3         1 ABJ       0.111300
      3 C20         46.3300    17.3240    31.4310 c3         1 ABJ      -0.104100
      4 N11         46.4280    14.8210    31.5670 na         1 ABJ      -0.017100
      5 N15         45.1490    14.4950    32.0290 nc         1 ABJ      -0.518100
      6 C7          46.9890    13.8010    30.8110 ca         1 ABJ       0.156500
      7 N3          48.1990    13.6610    30.2340 nb         1 ABJ      -0.234000
      8 C6          48.4240    12.4710    29.6280 ca         1 ABJ       0.196900
      9 N5          47.5720    11.4180    29.5740 nb         1 ABJ      -0.315000
     10 C2          46.3800    11.5920    30.1610 ca         1 ABJ       0.458900
     11 N1          45.5700    10.5140    30.1540 nv         1 ABJ      -1.068900
     12 C4          46.0580    12.8030    30.7650 ca         1 ABJ      -0.379900
     13 C13         44.9150    13.2830    31.5090 cd         1 ABJ       0.426500
     14 C18         43.6310    12.5790    31.7090 ca         1 ABJ      -0.055900
     15 C28         43.0240    12.5510    32.9840 ca         1 ABJ      -0.180000
     16 C27         42.9370    12.0190    30.6150 ca         1 ABJ      -0.152000
     17 C30         41.6930    11.3920    30.8000 ca         1 ABJ      -0.079000
     18 C26         41.1190    11.3400    32.0810 ca         1 ABJ      -0.140000
     19 C29         41.7810    11.9250    33.1690 ca         1 ABJ       0.139100
     20 O33         41.2090    11.8870    34.4060 oh         1 ABJ      -0.533100
     21 H201        45.3740    17.4010    31.9620 hc         1 ABJ       0.048367
     22 H202        46.9010    18.2420    31.6160 hc         1 ABJ       0.048367
     23 H203        46.1230    17.2630    30.3560 hc         1 ABJ       0.048367
     24 H14         48.0730    16.0900    31.3470 h1         1 ABJ       0.082700
     25 H191        48.0820    15.2980    33.6990 hc         1 ABJ       0.048367
     26 H192        48.0580    17.0710    33.6140 hc         1 ABJ       0.048367
     27 H193        46.5730    16.1810    34.0170 hc         1 ABJ       0.048367
     28 H6          49.3950    12.3400    29.1530 h5         1 ABJ       0.045100
     29 H11N        44.7620    10.5100    30.7690 hn         1 ABJ       0.504000
     30 H12N        45.9690     9.6120    29.9090 hn         1 ABJ       0.504000
     31 H28         43.5330    13.0120    33.8280 ha         1 ABJ       0.126000
     32 H27         43.3580    12.0810    29.6130 ha         1 ABJ       0.124000
     33 H30         41.1700    10.9560    29.9510 ha         1 ABJ       0.117000
     34 H26         40.1550    10.8580    32.2260 ha         1 ABJ       0.130000
     35 H33         41.8040    12.3450    35.0380 ho         1 ABJ       0.467000
@<TRIPOS>BOND
     1     1     2 1   
     2     1    25 1   
     3     1    26 1   
     4     1    27 1   
     5     2     3 1   
     6     2     4 1   
     7     2    24 1   
     8     3    21 1   
     9     3    22 1   
    10     3    23 1   
    11     4     5 1   
    12     4     6 1   
    13     5    13 2   
    14     6     7 ar  
    15     6    12 ar  
    16     7     8 ar  
    17     8     9 ar  
    18     8    28 1   
    19     9    10 ar  
    20    10    11 1   
    21    10    12 ar  
    22    11    29 1   
    23    11    30 1   
    24    12    13 1   
    25    13    14 1   
    26    14    15 ar  
    27    14    16 ar  
    28    15    19 ar  
    29    15    31 1   
    30    16    17 ar  
    31    16    32 1   
    32    17    18 ar  
    33    17    33 1   
    34    18    19 ar  
    35    18    34 1   
    36    19    20 1   
    37    20    35 1   
@<TRIPOS>SUBSTRUCTURE
     1 ABJ         1 TEMP              0 ****  ****    0 ROOT
