@<TRIPOS>MOLECULE
ABK
   17    16     1     0     0
SMALL
abcg2


@<TRIPOS>ATOM
      1 N            1.9520     1.0300    -0.3720 n8         1 ABK      -1.000200
      2 CA           0.6330     0.5640    -0.0000 c3         1 ABK       0.049500
      3 CB           0.0420    -0.5500    -0.8900 c3         1 ABK      -0.164400
      4 CG          -0.1070    -0.1380    -2.3290 c3         1 ABK       0.169300
      5 FG1         -0.6850    -1.1470    -3.0450 f          1 ABK      -0.135000
      6 FG2         -0.9430     0.9380    -2.4420 f          1 ABK      -0.135000
      7 O21         -0.6630    -0.7290     3.2390 o          1 ABK      -0.691000
      8 O22         -1.6760     0.4480     1.6270 o          1 ABK      -0.691000
      9 C1           0.6530     0.0310     1.4220 c          1 ABK       0.434100
     10 HN1          1.9380     1.4580    -1.2870 hn         1 ABK       0.382000
     11 HN2          2.6100     0.2620    -0.4120 hn         1 ABK       0.382000
     12 HA          -0.0520     1.4140    -0.0210 h1         1 ABK       0.104700
     13 HB1          0.7000    -1.4240    -0.8640 hc         1 ABK       0.079700
     14 HB2         -0.9350    -0.8560    -0.5130 hc         1 ABK       0.079700
     15 HG           0.8340     0.1170    -2.8180 h2         1 ABK       0.029700
     16 O12          1.6880    -0.2940     1.9500 o          1 ABK      -0.545100
     17 C2          -0.7050    -0.1020     2.1740 c          1 ABK       0.650000
@<TRIPOS>BOND
     1     1     2 1   
     2     1    10 1   
     3     1    11 1   
     4     2     3 1   
     5     2     9 1   
     6     2    12 1   
     7     3     4 1   
     8     3    13 1   
     9     3    14 1   
    10     4     5 1   
    11     4     6 1   
    12     4    15 1   
    13     7    17 1   
    14     8    17 1   
    15     9    16 2   
    16     9    17 1   
@<TRIPOS>SUBSTRUCTURE
     1 ABK         1 TEMP              0 ****  ****    0 ROOT
