@<TRIPOS>MOLECULE
ABK
   17    16     1     0     0
SMALL
No Charge or Current Charge


@<TRIPOS>ATOM
      1 N            1.9970     1.0350    -0.4660 n8         1 ABK      -1.000200
      2 CA           0.6730     0.5210     0.0230 c3         1 ABK       0.049500
      3 CB           0.1450    -0.5720    -0.9440 c3         1 ABK      -0.164400
      4 CG          -0.1700    -0.0770    -2.3740 c3         1 ABK       0.169300
      5 FG1         -0.6000    -1.1130    -3.1290 f          1 ABK      -0.135000
      6 FG2         -1.1680     0.8360    -2.3430 f          1 ABK      -0.135000
      7 O21         -0.9110    -0.7280     3.2490 o          1 ABK      -0.691000
      8 O22         -1.6960     0.6530     1.7890 o          1 ABK      -0.691000
      9 C1           0.6610     0.0090     1.5100 c          1 ABK       0.434100
     10 HN1          1.9530     1.2060    -1.4770 hn         1 ABK       0.382000
     11 HN2          2.7040     0.2960    -0.3650 hn         1 ABK       0.382000
     12 HA          -0.0400     1.3590    -0.0050 h1         1 ABK       0.104700
     13 HB1          0.8730    -1.3910    -1.0000 hc         1 ABK       0.079700
     14 HB2         -0.7720    -1.0070    -0.5280 hc         1 ABK       0.079700
     15 HG           0.7140     0.3670    -2.8460 h2         1 ABK       0.029700
     16 O12          1.7010    -0.3450     2.0810 o          1 ABK      -0.545100
     17 C2          -0.7810    -0.0270     2.2470 c          1 ABK       0.650000
@<TRIPOS>BOND
     1     1     2 1   
     2     1    10 1   
     3     1    11 1   
     4     2     3 1   
     5     2     9 1   
     6     2    12 1   
     7     3     4 1   
     8     3    13 1   
     9     3    14 1   
    10     4     5 1   
    11     4     6 1   
    12     4    15 1   
    13     7    17 1   
    14     8    17 1   
    15     9    16 2   
    16     9    17 1   
@<TRIPOS>SUBSTRUCTURE
     1 ABK         1 TEMP              0 ****  ****    0 ROOT
