@<TRIPOS>MOLECULE
ABL
   44    45     1     0     0
SMALL
No Charge or Current Charge


@<TRIPOS>ATOM
      1 C1          -4.1330     0.2130     0.3950 c          1 ABL       0.532000
      2 O1          -5.2040     0.4240     0.9440 o          1 ABL      -0.570000
      3 C2          -3.5060     1.2420    -0.5970 c6         1 ABL       0.051300
      4 O2          -4.4920     1.7760    -1.5220 oh         1 ABL      -0.655000
      5 C3          -2.2910     0.6650    -1.3700 c6         1 ABL       0.179300
      6 O3          -1.6630     1.7280    -2.1110 oh         1 ABL      -0.688000
      7 C4          -1.3160    -0.0600    -0.3930 c6         1 ABL       0.171300
      8 O4          -0.1060    -0.4620    -1.0930 os         1 ABL      -0.439000
      9 C5          -2.0600    -1.2760     0.2570 c6         1 ABL       0.096700
     10 N5          -3.4630    -0.9670     0.6190 ns         1 ABL      -0.494900
     11 C6          -1.3170    -1.8910     1.4850 c3         1 ABL       0.144600
     12 O6          -2.1500    -2.8020     2.2260 oh         1 ABL      -0.666000
     13 C1A          1.1140    -0.4620    -0.3250 c6         1 ABL       0.369300
     14 C2A          2.2730    -1.0880    -1.1680 c6         1 ABL       0.111300
     15 O2A          1.9840    -2.4420    -1.5980 oh         1 ABL      -0.727000
     16 C3A          3.5770    -1.0480    -0.3230 c6         1 ABL       0.138300
     17 O3A          4.6750    -1.5880    -1.0770 oh         1 ABL      -0.663000
     18 C4A          3.8800     0.4130     0.1290 c6         1 ABL       0.141300
     19 O4A          5.0640     0.4310     0.9480 oh         1 ABL      -0.717000
     20 C5A          2.6340     0.9960     0.8720 c6         1 ABL       0.178300
     21 O5A          1.4610     0.8910     0.0220 os         1 ABL      -0.445000
     22 C6A          2.8230     2.4970     1.2710 c3         1 ABL       0.173600
     23 O6A          1.6660     3.0660     1.9200 oh         1 ABL      -0.710000
     24 H2          -3.1310     2.0470     0.0530 h1         1 ABL       0.065700
     25 HO2         -5.3190     1.9200    -1.0030 ho         1 ABL       0.477000
     26 H3          -2.6710    -0.0920    -2.0740 h1         1 ABL       0.053700
     27 HO3         -2.4130     2.2460    -2.4880 ho         1 ABL       0.521000
     28 H4          -1.0520     0.6610     0.3960 h1         1 ABL       0.070700
     29 H5          -2.1120    -2.0660    -0.5060 h1         1 ABL       0.070700
     30 HN5         -3.9120    -1.6070     1.2660 hn         1 ABL       0.336500
     31 H6          -0.4240    -2.4180     1.1260 h1         1 ABL       0.036700
     32 H6A         -0.9890    -1.0720     2.1390 h1         1 ABL       0.036700
     33 HO6         -1.6090    -3.1520     2.9700 ho         1 ABL       0.455000
     34 H1A          0.9830    -1.0480     0.5940 h2         1 ABL       0.025700
     35 H2A          2.4170    -0.4430    -2.0490 h1         1 ABL       0.073700
     36 HO2A         1.0990    -2.4110    -2.0360 ho         1 ABL       0.524000
     37 H3A          3.4130    -1.6600     0.5780 h1         1 ABL       0.049700
     38 HO3A         4.2860    -2.3440    -1.5770 ho         1 ABL       0.465000
     39 H4A          4.0470     1.0210    -0.7740 h1         1 ABL       0.058700
     40 HO4A         5.6830    -0.2060     0.5140 ho         1 ABL       0.526000
     41 H5A          2.4570     0.4200     1.7920 h1         1 ABL       0.056700
     42 H6AA         3.6950     2.5690     1.9350 h1         1 ABL       0.038200
     43 H6AB         3.0610     3.0640     0.3600 h1         1 ABL       0.038200
     44 HO6A         1.8610     4.0200     2.0710 ho         1 ABL       0.505000
@<TRIPOS>BOND
     1     1     2 2   
     2     1     3 1   
     3     1    10 1   
     4     3     4 1   
     5     3     5 1   
     6     3    24 1   
     7     4    25 1   
     8     5     6 1   
     9     5     7 1   
    10     5    26 1   
    11     6    27 1   
    12     7     8 1   
    13     7     9 1   
    14     7    28 1   
    15     8    13 1   
    16     9    10 1   
    17     9    11 1   
    18     9    29 1   
    19    10    30 1   
    20    11    12 1   
    21    11    31 1   
    22    11    32 1   
    23    12    33 1   
    24    13    14 1   
    25    13    21 1   
    26    13    34 1   
    27    14    15 1   
    28    14    16 1   
    29    14    35 1   
    30    15    36 1   
    31    16    17 1   
    32    16    18 1   
    33    16    37 1   
    34    17    38 1   
    35    18    19 1   
    36    18    20 1   
    37    18    39 1   
    38    19    40 1   
    39    20    21 1   
    40    20    22 1   
    41    20    41 1   
    42    22    23 1   
    43    22    42 1   
    44    22    43 1   
    45    23    44 1   
@<TRIPOS>SUBSTRUCTURE
     1 ABL         1 TEMP              0 ****  ****    0 ROOT
