@<TRIPOS>MOLECULE
ABL
   44    45     1     0     0
SMALL
abcg2


@<TRIPOS>ATOM
      1 C1          -4.1680     0.0160     0.2520 c          1 ABL       0.532000
      2 O1          -5.3710     0.1140     0.4500 o          1 ABL      -0.570000
      3 C2          -3.3710     1.2400    -0.1780 c6         1 ABL       0.051300
      4 O2          -4.1660     2.1010    -0.9430 oh         1 ABL      -0.655000
      5 C3          -2.1280     0.8760    -0.9760 c6         1 ABL       0.179300
      6 O3          -1.3410     2.0020    -1.2390 oh         1 ABL      -0.688000
      7 C4          -1.3120    -0.1080    -0.1500 c6         1 ABL       0.171300
      8 O4          -0.1200    -0.4280    -0.8350 os         1 ABL      -0.439000
      9 C5          -2.1120    -1.3980     0.0550 c6         1 ABL       0.096700
     10 N5          -3.4790    -1.1120     0.4550 ns         1 ABL      -0.494900
     11 C6          -1.4750    -2.3020     1.1000 c3         1 ABL       0.144600
     12 O6          -2.2680    -3.4620     1.2050 oh         1 ABL      -0.666000
     13 C1A          1.0630    -0.3050    -0.1310 c6         1 ABL       0.369300
     14 C2A          2.1150    -1.1830    -0.8060 c6         1 ABL       0.111300
     15 O2A          1.7770    -2.5460    -0.7450 oh         1 ABL      -0.727000
     16 C3A          3.4360    -0.9990    -0.0730 c6         1 ABL       0.138300
     17 O3A          4.4970    -1.6670    -0.7110 oh         1 ABL      -0.663000
     18 C4A          3.8050     0.4790     0.0020 c6         1 ABL       0.141300
     19 O4A          4.9340     0.6790     0.8150 oh         1 ABL      -0.717000
     20 C5A          2.6400     1.2740     0.5970 c6         1 ABL       0.178300
     21 O5A          1.4690     1.0320    -0.1570 os         1 ABL      -0.445000
     22 C6A          2.9080     2.7630     0.5750 c3         1 ABL       0.173600
     23 O6A          1.8650     3.4270     1.2460 oh         1 ABL      -0.710000
     24 H2          -3.0410     1.7280     0.7550 h1         1 ABL       0.065700
     25 HO2         -5.0380     2.1410    -0.5300 ho         1 ABL       0.477000
     26 H3          -2.4400     0.3790    -1.9090 h1         1 ABL       0.053700
     27 HO3         -1.8510     2.6020    -1.7920 ho         1 ABL       0.521000
     28 H4          -1.0890     0.3470     0.8250 h1         1 ABL       0.070700
     29 H5          -2.1240    -1.9350    -0.9020 h1         1 ABL       0.070700
     30 HN5         -4.0170    -1.9100     0.7670 hn         1 ABL       0.336500
     31 H6          -0.4540    -2.5470     0.7900 h1         1 ABL       0.036700
     32 H6A         -1.4160    -1.7590     2.0510 h1         1 ABL       0.036700
     33 HO6         -1.9320    -3.9950     1.9310 ho         1 ABL       0.455000
     34 H1A          0.9360    -0.6350     0.9180 h2         1 ABL       0.025700
     35 H2A          2.2320    -0.8430    -1.8460 h1         1 ABL       0.073700
     36 HO2A         1.0730    -2.7190    -1.3770 ho         1 ABL       0.524000
     37 H3A          3.3080    -1.3660     0.9590 h1         1 ABL       0.049700
     38 HO3A         4.3780    -2.6150    -0.5980 ho         1 ABL       0.465000
     39 H4A          3.9840     0.8440    -1.0220 h1         1 ABL       0.058700
     40 HO4A         5.6560     0.1500     0.4600 ho         1 ABL       0.526000
     41 H5A          2.4950     0.9500     1.6410 h1         1 ABL       0.056700
     42 H6AA         3.8770     2.9470     1.0510 h1         1 ABL       0.038200
     43 H6AB         2.9950     3.0900    -0.4710 h1         1 ABL       0.038200
     44 HO6A         2.0900     4.3600     1.2900 ho         1 ABL       0.505000
@<TRIPOS>BOND
     1     1     2 2   
     2     1     3 1   
     3     1    10 1   
     4     3     4 1   
     5     3     5 1   
     6     3    24 1   
     7     4    25 1   
     8     5     6 1   
     9     5     7 1   
    10     5    26 1   
    11     6    27 1   
    12     7     8 1   
    13     7     9 1   
    14     7    28 1   
    15     8    13 1   
    16     9    10 1   
    17     9    11 1   
    18     9    29 1   
    19    10    30 1   
    20    11    12 1   
    21    11    31 1   
    22    11    32 1   
    23    12    33 1   
    24    13    14 1   
    25    13    21 1   
    26    13    34 1   
    27    14    15 1   
    28    14    16 1   
    29    14    35 1   
    30    15    36 1   
    31    16    17 1   
    32    16    18 1   
    33    16    37 1   
    34    17    38 1   
    35    18    19 1   
    36    18    20 1   
    37    18    39 1   
    38    19    40 1   
    39    20    21 1   
    40    20    22 1   
    41    20    41 1   
    42    22    23 1   
    43    22    42 1   
    44    22    43 1   
    45    23    44 1   
@<TRIPOS>SUBSTRUCTURE
     1 ABL         1 TEMP              0 ****  ****    0 ROOT
