@<TRIPOS>MOLECULE
ABM
   38    40     1     0     0
SMALL
bcc


@<TRIPOS>ATOM
      1 P           -1.6100     0.3180     3.5240 p5         1 ABM       1.241600
      2 CM          -2.5660    -1.2110     3.7500 c3         1 ABM      -0.295300
      3 O2P         -1.4920     1.0670     4.8250 o          1 ABM      -0.833000
      4 O3P         -2.0910     1.0660     2.3020 o          1 ABM      -0.833000
      5 O5          -0.1490    -0.3920     3.1770 os         1 ABM      -0.564200
      6 C5           0.8970     0.4120     2.6930 c3         1 ABM       0.191400
      7 C4           1.7820    -0.4290     1.7910 c5         1 ABM       0.132100
      8 O4           1.0190    -1.0220     0.7340 os         1 ABM      -0.377600
      9 C3           2.8580     0.3980     1.1050 c5         1 ABM       0.079100
     10 O3           3.9470    -0.4350     0.8020 oh         1 ABM      -0.588800
     11 C2           2.1270     0.8300    -0.1680 c5         1 ABM       0.049100
     12 O2           2.9560     1.1580    -1.2430 oh         1 ABM      -0.577800
     13 C1           1.3220    -0.4290    -0.4920 c5         1 ABM       0.270800
     14 N9           0.0960    -0.1680    -1.2110 na         1 ABM      -0.266000
     15 C8          -1.0810     0.3210    -0.7040 cc         1 ABM       0.445700
     16 N7          -1.9980     0.4810    -1.6150 nd         1 ABM      -0.568100
     17 C7          -1.4000     0.0840    -2.7820 ca         1 ABM      -0.220200
     18 C6          -1.8500     0.0160    -4.1130 ca         1 ABM       0.765200
     19 N6          -3.0840     0.3720    -4.4760 nv         1 ABM      -0.966500
     20 N1          -0.9990    -0.4340    -5.0420 nb         1 ABM      -0.845000
     21 C10          0.2260    -0.8010    -4.6720 ca         1 ABM       0.681900
     22 N3           0.7620    -0.7800    -3.4650 nb         1 ABM      -0.736000
     23 C9          -0.0960    -0.3260    -2.5520 ca         1 ABM       0.441800
     24 HM1         -3.5940    -0.9560     4.0110 hc         1 ABM       0.043367
     25 HM2         -2.5900    -1.8070     2.8390 hc         1 ABM       0.043367
     26 HM3         -2.1610    -1.8250     4.5550 hc         1 ABM       0.043367
     27 H5'1         0.5190     1.2850     2.1460 h1         1 ABM       0.022200
     28 H5'2         1.5140     0.7950     3.5150 h1         1 ABM       0.022200
     29 H4           2.2250    -1.2390     2.3790 h1         1 ABM       0.094700
     30 H3           3.1640     1.2600     1.7140 h1         1 ABM       0.052700
     31 HO3          4.4550    -0.0150     0.0970 ho         1 ABM       0.410000
     32 H2           1.4370     1.6490     0.0720 h1         1 ABM       0.069700
     33 HO2          3.2270     2.0770    -1.1560 ho         1 ABM       0.405000
     34 H1           1.9110    -1.0970    -1.1300 h2         1 ABM       0.102700
     35 H8          -1.2270     0.5230     0.3510 h5         1 ABM       0.142800
     36 HN61        -3.3490     0.3680    -5.4450 hn         1 ABM       0.444300
     37 HN62        -3.7270     0.7620    -3.8080 hn         1 ABM       0.444300
     38 H6           0.8650    -1.1610    -5.4720 h5         1 ABM       0.030100
@<TRIPOS>BOND
     1     1     2 1   
     2     1     3 1   
     3     1     4 1   
     4     1     5 1   
     5     2    24 1   
     6     2    25 1   
     7     2    26 1   
     8     5     6 1   
     9     6     7 1   
    10     6    27 1   
    11     6    28 1   
    12     7     8 1   
    13     7     9 1   
    14     7    29 1   
    15     8    13 1   
    16     9    10 1   
    17     9    11 1   
    18     9    30 1   
    19    10    31 1   
    20    11    12 1   
    21    11    13 1   
    22    11    32 1   
    23    12    33 1   
    24    13    14 1   
    25    13    34 1   
    26    14    15 1   
    27    14    23 1   
    28    15    16 2   
    29    15    35 1   
    30    16    17 1   
    31    17    18 ar  
    32    17    23 ar  
    33    18    19 1   
    34    18    20 ar  
    35    19    36 1   
    36    19    37 1   
    37    20    21 ar  
    38    21    22 ar  
    39    21    38 1   
    40    22    23 ar  
@<TRIPOS>SUBSTRUCTURE
     1 ABM         1 TEMP              0 ****  ****    0 ROOT
