@<TRIPOS>MOLECULE
ABM
   38    40     1     0     0
SMALL
No Charge or Current Charge


@<TRIPOS>ATOM
      1 P           -1.1630     0.1750     3.2400 p5         1 ABM       1.399400
      2 CM          -2.6340    -0.8480     2.8850 c3         1 ABM      -0.453100
      3 O2P         -1.2670     0.7510     4.6140 o          1 ABM      -0.833000
      4 O3P         -1.0140     1.2120     2.1780 o          1 ABM      -0.833000
      5 O5          -0.0460    -0.9860     3.1600 os         1 ABM      -0.587400
      6 C5           1.3500    -0.6420     3.1510 c3         1 ABM       0.214600
      7 C4           1.9540    -0.6950     1.7050 c5         1 ABM       0.155300
      8 O4           0.9280    -0.8190     0.6780 os         1 ABM      -0.424000
      9 C3           2.8350     0.5490     1.3090 c5         1 ABM       0.102300
     10 O3           4.0380     0.1840     0.6230 oh         1 ABM      -0.711000
     11 C2           1.9020     1.2970     0.3170 c5         1 ABM       0.072300
     12 O2           2.6620     2.1750    -0.5440 oh         1 ABM      -0.700000
     13 C1           1.2660     0.0630    -0.4040 c5         1 ABM       0.323300
     14 N9           0.0860     0.2770    -1.2390 na         1 ABM      -0.295300
     15 C8          -0.8930     1.2610    -1.0480 cc         1 ABM       0.445700
     16 N7          -1.8260     1.2200    -2.0230 nd         1 ABM      -0.568100
     17 C7          -1.4010     0.1600    -2.8310 ca         1 ABM      -0.089600
     18 C6          -1.9790    -0.3620    -4.0080 ca         1 ABM       0.436900
     19 N6          -3.1190     0.1400    -4.5540 nv         1 ABM      -1.076900
     20 N1          -1.4150    -1.3890    -4.6620 nb         1 ABM      -0.319000
     21 C10         -0.2760    -1.8870    -4.1210 ca         1 ABM       0.155900
     22 N3           0.3450    -1.4520    -2.9990 nb         1 ABM      -0.210000
     23 C9          -0.2460    -0.4180    -2.3670 ca         1 ABM       0.113500
     24 HM1         -3.5300    -0.2200     2.9040 hc         1 ABM       0.043367
     25 HM2         -2.5280    -1.3030     1.8950 hc         1 ABM       0.043367
     26 HM3         -2.7230    -1.6360     3.6400 hc         1 ABM       0.043367
     27 H5'1         1.5010     0.3630     3.5670 h1         1 ABM       0.022200
     28 H5'2         1.9120    -1.3360     3.7890 h1         1 ABM       0.022200
     29 H4           2.5730    -1.6020     1.6610 h1         1 ABM       0.094700
     30 H3           3.0720     1.1770     2.1790 h1         1 ABM       0.052700
     31 HO3          4.1310     0.9000    -0.0560 ho         1 ABM       0.509000
     32 H2           1.1420     1.8620     0.8740 h1         1 ABM       0.069700
     33 HO2          2.0250     2.7530    -1.0300 ho         1 ABM       0.504000
     34 H1           2.0170    -0.4180    -1.0450 h2         1 ABM       0.102700
     35 H8          -0.8700     1.9610    -0.2190 h5         1 ABM       0.142800
     36 HN61        -3.3150    -0.0740    -5.5290 hn         1 ABM       0.499500
     37 HN62        -3.4390     1.0410    -4.2090 hn         1 ABM       0.499500
     38 H6           0.1890    -2.7210    -4.6440 h5         1 ABM       0.030100
@<TRIPOS>BOND
     1     1     2 1   
     2     1     3 1   
     3     1     4 1   
     4     1     5 1   
     5     2    24 1   
     6     2    25 1   
     7     2    26 1   
     8     5     6 1   
     9     6     7 1   
    10     6    27 1   
    11     6    28 1   
    12     7     8 1   
    13     7     9 1   
    14     7    29 1   
    15     8    13 1   
    16     9    10 1   
    17     9    11 1   
    18     9    30 1   
    19    10    31 1   
    20    11    12 1   
    21    11    13 1   
    22    11    32 1   
    23    12    33 1   
    24    13    14 1   
    25    13    34 1   
    26    14    15 1   
    27    14    23 1   
    28    15    16 2   
    29    15    35 1   
    30    16    17 1   
    31    17    18 ar  
    32    17    23 ar  
    33    18    19 1   
    34    18    20 ar  
    35    19    36 1   
    36    19    37 1   
    37    20    21 ar  
    38    21    22 ar  
    39    21    38 1   
    40    22    23 ar  
@<TRIPOS>SUBSTRUCTURE
     1 ABM         1 TEMP              0 ****  ****    0 ROOT
