@<TRIPOS>MOLECULE
ABN
   17    17     1     0     0
SMALL
No Charge or Current Charge


@<TRIPOS>ATOM
      1 N            0.0840    -0.6660     2.7580 n8         1 ABN      -0.999200
      2 C            0.0160     0.5720     1.9600 c3         1 ABN       0.197100
      3 C1           0.0030     0.2740     0.4660 ca         1 ABN      -0.088300
      4 C2          -1.2190     0.1740    -0.2300 ca         1 ABN      -0.100500
      5 C3          -1.2290    -0.0930    -1.6110 ca         1 ABN      -0.114000
      6 C4          -0.0180    -0.2620    -2.3040 ca         1 ABN      -0.110000
      7 C5           1.2030    -0.1630    -1.6160 ca         1 ABN      -0.114000
      8 C6           1.2140     0.1040    -0.2360 ca         1 ABN      -0.100500
      9 HN1         -0.7550    -1.2250     2.5660 hn         1 ABN       0.396500
     10 HN2         -0.0050    -0.4260     3.7530 hn         1 ABN       0.396500
     11 H1          -0.8950     1.1220     2.2370 h1         1 ABN       0.034200
     12 H2A          0.8820     1.2020     2.2070 h1         1 ABN       0.034200
     13 H2          -2.1610     0.3040     0.2980 ha         1 ABN       0.118000
     14 H3          -2.1750    -0.1690    -2.1430 ha         1 ABN       0.110500
     15 H4          -0.0260    -0.4680    -3.3720 ha         1 ABN       0.111000
     16 H5           2.1410    -0.2930    -2.1520 ha         1 ABN       0.110500
     17 H6           2.1630     0.1780     0.2910 ha         1 ABN       0.118000
@<TRIPOS>BOND
     1     1     2 1   
     2     1     9 1   
     3     1    10 1   
     4     2     3 1   
     5     2    11 1   
     6     2    12 1   
     7     3     4 ar  
     8     3     8 ar  
     9     4     5 ar  
    10     4    13 1   
    11     5     6 ar  
    12     5    14 1   
    13     6     7 ar  
    14     6    15 1   
    15     7     8 ar  
    16     7    16 1   
    17     8    17 1   
@<TRIPOS>SUBSTRUCTURE
     1 ABN         1 TEMP              0 ****  ****    0 ROOT
