@<TRIPOS>MOLECULE
ABN
   17    17     1     0     0
SMALL
bcc


@<TRIPOS>ATOM
      1 N            0.6400    -0.3490     2.7270 n8         1 ABN      -0.888800
      2 C           -0.2880     0.4530     1.9490 c3         1 ABN       0.197100
      3 C1          -0.1730     0.1950     0.4670 ca         1 ABN      -0.088300
      4 C2          -1.2730     0.4030    -0.3620 ca         1 ABN      -0.118500
      5 C3          -1.1800     0.2150    -1.7350 ca         1 ABN      -0.132000
      6 C4           0.0210    -0.1930    -2.3020 ca         1 ABN      -0.128000
      7 C5           1.1210    -0.4110    -1.4840 ca         1 ABN      -0.132000
      8 C6           1.0250    -0.2190    -0.1110 ca         1 ABN      -0.118500
      9 HN1          0.3520    -1.3190     2.7040 hn         1 ABN       0.341300
     10 HN2          0.5920    -0.0660     3.6970 hn         1 ABN       0.341300
     11 H1          -1.3390     0.3270     2.2430 h1         1 ABN       0.034200
     12 H2A         -0.0530     1.5060     2.1350 h1         1 ABN       0.034200
     13 H2          -2.2170     0.7140     0.0700 ha         1 ABN       0.136000
     14 H3          -2.0470     0.3820    -2.3610 ha         1 ABN       0.128500
     15 H4           0.0960    -0.3430    -3.3710 ha         1 ABN       0.129000
     16 H5           2.0600    -0.7350    -1.9140 ha         1 ABN       0.128500
     17 H6           1.8850    -0.3970     0.5210 ha         1 ABN       0.136000
@<TRIPOS>BOND
     1     1     2 1   
     2     1     9 1   
     3     1    10 1   
     4     2     3 1   
     5     2    11 1   
     6     2    12 1   
     7     3     4 ar  
     8     3     8 ar  
     9     4     5 ar  
    10     4    13 1   
    11     5     6 ar  
    12     5    14 1   
    13     6     7 ar  
    14     6    15 1   
    15     7     8 ar  
    16     7    16 1   
    17     8    17 1   
@<TRIPOS>SUBSTRUCTURE
     1 ABN         1 TEMP              0 ****  ****    0 ROOT
