@<TRIPOS>MOLECULE
ABO
   43    47     1     0     0
SMALL
abcg2


@<TRIPOS>ATOM
      1 C18         -5.4200     3.0820    -1.1430 c3         1 ABO       0.156900
      2 O17         -6.1090     1.9860    -0.5740 os         1 ABO      -0.368100
      3 C12         -5.3960     0.9240    -0.1430 ca         1 ABO       0.045100
      4 C11         -4.0190     0.8010    -0.2180 ca         1 ABO      -0.138000
      5 C13         -6.1660    -0.1140     0.4080 ca         1 ABO       0.128100
      6 O16         -7.5070    -0.0240     0.4930 oh         1 ABO      -0.532100
      7 C14         -5.5290    -1.2520     0.8720 ca         1 ABO      -0.127000
      8 C15         -4.1470    -1.3700     0.7930 ca         1 ABO      -0.092000
      9 C10         -3.3750    -0.3520     0.2470 cp         1 ABO      -0.048000
     10 C8          -1.9070    -0.4780     0.1530 cp         1 ABO       0.017000
     11 C9          -1.3340    -1.7020    -0.1400 ca         1 ABO      -0.129000
     12 C7          -1.0830     0.6580     0.3670 ca         1 ABO      -0.144000
     13 C6           0.2880     0.5930     0.2970 ca         1 ABO      -0.018000
     14 C5           0.8780    -0.6430     0.0040 ca         1 ABO      -0.191900
     15 C4           0.0590    -1.7640    -0.2050 ca         1 ABO      -0.044200
     16 N3           0.8980    -2.7950    -0.4690 na         1 ABO      -0.046400
     17 N1           2.1720    -2.4330    -0.4420 nc         1 ABO      -0.529100
     18 C2           2.1980    -1.1480    -0.1620 cd         1 ABO       0.331600
     19 C19          3.4510    -0.4350    -0.0590 cd         1 ABO       0.410500
     20 N21          4.6510    -1.0440    -0.2540 na         1 ABO      -0.296600
     21 C22          5.6190    -0.0940    -0.0850 ca         1 ABO      -0.076200
     22 C27          7.0060    -0.1370    -0.1630 ca         1 ABO      -0.115000
     23 C26          7.6780     1.0500     0.0750 ca         1 ABO      -0.093000
     24 C25          6.9920     2.2350     0.3800 ca         1 ABO      -0.135000
     25 C24          5.6110     2.2700     0.4540 ca         1 ABO      -0.049000
     26 C23          4.9140     1.0850     0.2170 ca         1 ABO       0.068400
     27 N20          3.5640     0.8370     0.2250 nc         1 ABO      -0.571100
     28 H181        -6.1750     3.8170    -1.4100 h1         1 ABO       0.043033
     29 H182        -4.7210     3.5330    -0.4330 h1         1 ABO       0.043033
     30 H183        -4.8730     2.7920    -2.0430 h1         1 ABO       0.043033
     31 H11         -3.4320     1.5910    -0.6660 ha         1 ABO       0.121000
     32 H16         -7.8080     0.8200     0.1360 ho         1 ABO       0.483000
     33 H14         -6.1200    -2.0490     1.3070 ha         1 ABO       0.132000
     34 H15         -3.6750    -2.2620     1.1850 ha         1 ABO       0.118000
     35 H9          -1.9400    -2.5770    -0.3320 ha         1 ABO       0.123000
     36 H7          -1.5490     1.6020     0.6180 ha         1 ABO       0.117000
     37 H6           0.8970     1.4680     0.4740 ha         1 ABO       0.145000
     38 H3           0.6570    -3.7550    -0.6600 hn         1 ABO       0.380000
     39 H21          4.7880    -2.0180    -0.4750 hn         1 ABO       0.370000
     40 H27          7.5380    -1.0500    -0.3980 ha         1 ABO       0.118000
     41 H26          8.7590     1.0640     0.0260 ha         1 ABO       0.112000
     42 H25          7.5590     3.1390     0.5610 ha         1 ABO       0.113000
     43 H24          5.0840     3.1860     0.6910 ha         1 ABO       0.127000
@<TRIPOS>BOND
     1     1     2 1   
     2     1    28 1   
     3     1    29 1   
     4     1    30 1   
     5     2     3 1   
     6     3     4 ar  
     7     3     5 ar  
     8     4     9 ar  
     9     4    31 1   
    10     5     6 1   
    11     5     7 ar  
    12     6    32 1   
    13     7     8 ar  
    14     7    33 1   
    15     8     9 ar  
    16     8    34 1   
    17     9    10 1   
    18    10    11 ar  
    19    10    12 ar  
    20    11    15 ar  
    21    11    35 1   
    22    12    13 ar  
    23    12    36 1   
    24    13    14 ar  
    25    13    37 1   
    26    14    15 ar  
    27    14    18 1   
    28    15    16 1   
    29    16    17 1   
    30    16    38 1   
    31    17    18 2   
    32    18    19 1   
    33    19    20 1   
    34    19    27 2   
    35    20    21 1   
    36    20    39 1   
    37    21    22 ar  
    38    21    26 ar  
    39    22    23 ar  
    40    22    40 1   
    41    23    24 ar  
    42    23    41 1   
    43    24    25 ar  
    44    24    42 1   
    45    25    26 ar  
    46    25    43 1   
    47    26    27 1   
@<TRIPOS>SUBSTRUCTURE
     1 ABO         1 TEMP              0 ****  ****    0 ROOT
