@<TRIPOS>MOLECULE
ABO
   43    47     1     0     0
SMALL
No Charge or Current Charge


@<TRIPOS>ATOM
      1 C18         -5.4580     3.1960    -1.1350 c3         1 ABO       0.156900
      2 O17         -6.1420     2.0620    -0.5660 os         1 ABO      -0.368100
      3 C12         -5.4680     0.9340    -0.1280 ca         1 ABO       0.045100
      4 C11         -4.0630     0.8080    -0.2110 ca         1 ABO      -0.138000
      5 C13         -6.2270    -0.1220     0.4170 ca         1 ABO       0.128100
      6 O16         -7.5840    -0.0060     0.5000 oh         1 ABO      -0.532100
      7 C14         -5.5950    -1.2870     0.8720 ca         1 ABO      -0.127000
      8 C15         -4.1980    -1.4070     0.7860 ca         1 ABO      -0.092000
      9 C10         -3.4040    -0.3640     0.2450 cp         1 ABO      -0.048000
     10 C8          -1.9140    -0.4970     0.1560 cp         1 ABO       0.017000
     11 C9          -1.3080    -1.7530    -0.1260 ca         1 ABO      -0.129000
     12 C7          -1.0620     0.6320     0.3530 ca         1 ABO      -0.144000
     13 C6           0.3430     0.5210     0.2730 ca         1 ABO      -0.018000
     14 C5           0.8810    -0.7430    -0.0090 ca         1 ABO      -0.191900
     15 C4           0.0880    -1.8290    -0.1990 ca         1 ABO      -0.044200
     16 N3           0.8920    -2.9210    -0.4610 na         1 ABO      -0.046400
     17 N1           2.2470    -2.5460    -0.4400 nc         1 ABO      -0.529100
     18 C2           2.2460    -1.2210    -0.1660 cd         1 ABO       0.331600
     19 C19          3.4810    -0.4520    -0.0590 cd         1 ABO       0.410500
     20 N21          4.7300    -1.0710    -0.2400 na         1 ABO      -0.296600
     21 C22          5.6230    -0.0520    -0.0660 ca         1 ABO      -0.076200
     22 C27          7.0220    -0.0910    -0.1330 ca         1 ABO      -0.115000
     23 C26          7.7240     1.1120     0.0860 ca         1 ABO      -0.093000
     24 C25          7.0180     2.3060     0.3630 ca         1 ABO      -0.135000
     25 C24          5.6060     2.3030     0.4220 ca         1 ABO      -0.049000
     26 C23          4.9280     1.0940     0.2010 ca         1 ABO       0.068400
     27 N20          3.5620     0.8720     0.2120 nc         1 ABO      -0.571100
     28 H181        -6.1790     3.9760    -1.4100 h1         1 ABO       0.043033
     29 H182        -4.7500     3.6260    -0.4150 h1         1 ABO       0.043033
     30 H183        -4.9090     2.9060    -2.0400 h1         1 ABO       0.043033
     31 H11         -3.4650     1.6050    -0.6410 ha         1 ABO       0.121000
     32 H16         -7.8090     0.8770     0.1300 ho         1 ABO       0.483000
     33 H14         -6.1860    -2.0960     1.2930 ha         1 ABO       0.132000
     34 H15         -3.7250    -2.3140     1.1570 ha         1 ABO       0.118000
     35 H9          -1.9140    -2.6390    -0.2960 ha         1 ABO       0.123000
     36 H7          -1.4950     1.6010     0.5850 ha         1 ABO       0.117000
     37 H6           0.9750     1.3920     0.4290 ha         1 ABO       0.145000
     38 H3           0.5870    -3.8760    -0.6460 hn         1 ABO       0.380000
     39 H21          4.8960    -2.0470    -0.4490 hn         1 ABO       0.370000
     40 H27          7.5510    -1.0170    -0.3480 ha         1 ABO       0.118000
     41 H26          8.8110     1.1210     0.0420 ha         1 ABO       0.112000
     42 H25          7.5630     3.2310     0.5320 ha         1 ABO       0.113000
     43 H24          5.0550     3.2150     0.6350 ha         1 ABO       0.127000
@<TRIPOS>BOND
     1     1     2 1   
     2     1    28 1   
     3     1    29 1   
     4     1    30 1   
     5     2     3 1   
     6     3     4 ar  
     7     3     5 ar  
     8     4     9 ar  
     9     4    31 1   
    10     5     6 1   
    11     5     7 ar  
    12     6    32 1   
    13     7     8 ar  
    14     7    33 1   
    15     8     9 ar  
    16     8    34 1   
    17     9    10 1   
    18    10    11 ar  
    19    10    12 ar  
    20    11    15 ar  
    21    11    35 1   
    22    12    13 ar  
    23    12    36 1   
    24    13    14 ar  
    25    13    37 1   
    26    14    15 ar  
    27    14    18 1   
    28    15    16 1   
    29    16    17 1   
    30    16    38 1   
    31    17    18 2   
    32    18    19 1   
    33    19    20 1   
    34    19    27 2   
    35    20    21 1   
    36    20    39 1   
    37    21    22 ar  
    38    21    26 ar  
    39    22    23 ar  
    40    22    40 1   
    41    23    24 ar  
    42    23    41 1   
    43    24    25 ar  
    44    24    42 1   
    45    25    26 ar  
    46    25    43 1   
    47    26    27 1   
@<TRIPOS>SUBSTRUCTURE
     1 ABO         1 TEMP              0 ****  ****    0 ROOT
