@<TRIPOS>MOLECULE
ABQ
   58    62     1     0     0
SMALL
No Charge or Current Charge


@<TRIPOS>ATOM
      1 C1           1.8230    -1.6610     0.1760 ca         1 ABQ      -0.081000
      2 C2           3.1160    -1.6290    -1.8800 ca         1 ABQ      -0.081000
      3 C3           0.7570    -2.2770    -0.5020 ca         1 ABQ      -0.149000
      4 C4           2.0460    -2.2420    -2.5570 ca         1 ABQ      -0.149000
      5 C5          -0.0490     3.9550     0.4420 ca         1 ABQ       0.264900
      6 C6           2.2060     3.5290     0.6390 ca         1 ABQ       0.235900
      7 C7          -3.3740     0.7350    -1.3290 cc         1 ABQ      -0.102100
      8 C8          -2.2540    -2.0810     2.0670 ca         1 ABQ       0.176900
      9 C9          -2.0570     0.0520     0.4700 ca         1 ABQ      -0.194800
     10 C10         -2.2890     1.0980    -0.5420 cd         1 ABQ      -0.198400
     11 C11          3.0130    -1.3160    -0.5010 ca         1 ABQ      -0.108300
     12 C12          0.8680    -2.5590    -1.8680 ca         1 ABQ       0.204000
     13 C13         -0.2290     2.7270    -0.2560 ca         1 ABQ       0.270500
     14 C14         -3.0120    -0.9220     0.2400 ca         1 ABQ       0.138500
     15 C15          2.0230     2.3030    -0.0750 ca         1 ABQ       0.562900
     16 C16         -1.2070    -0.1070     1.5830 ca         1 ABQ       0.438900
     17 C18          5.4070    -0.3140    -0.5320 c5         1 ABQ       0.158600
     18 C19          5.1100     1.5840     0.7790 c5         1 ABQ       0.139600
     19 C20          4.1340    -0.6140     0.3070 c5         1 ABQ      -0.064400
     20 C21          3.7200     0.8420     0.7310 c5         1 ABQ       0.208500
     21 C22         -6.2200    -0.6450    -1.3700 c3         1 ABQ      -0.107600
     22 C23         -4.5060    -1.8810    -2.8100 c3         1 ABQ      -0.107600
     23 N25          1.1650     4.3680     0.9100 nb         1 ABQ      -0.611000
     24 N26         -3.1200    -2.0080     1.0330 nb         1 ABQ      -0.235000
     25 N27         -1.3030    -1.1760     2.3850 nb         1 ABQ      -0.309000
     26 N28          0.8300     1.8900    -0.5220 nb         1 ABQ      -0.705000
     27 N29         -3.7770    -0.5210    -0.8490 na         1 ABQ      -0.175400
     28 N30         -0.2400     0.7560     1.9480 nv         1 ABQ      -1.069900
     29 N31          2.9930     1.4050    -0.4480 nu         1 ABQ      -0.920100
     30 O33          6.0960     0.6290     0.3080 os         1 ABQ      -0.449000
     31 F34         -0.1590    -3.1470    -2.5200 f          1 ABQ      -0.169000
     32 H1           1.7230    -1.4460     1.2380 ha         1 ABQ       0.115000
     33 H2           4.0140    -1.4050    -2.4490 ha         1 ABQ       0.115000
     34 H3          -0.1550    -2.5360     0.0280 ha         1 ABQ       0.135000
     35 H4           2.1290    -2.4730    -3.6150 ha         1 ABQ       0.135000
     36 H5          -0.8930     4.6210     0.6240 h4         1 ABQ       0.050100
     37 H6           3.1910     3.8420     0.9820 h4         1 ABQ       0.028100
     38 H7          -3.8520     1.2350    -2.1670 h4         1 ABQ       0.229000
     39 H8          -2.3360    -2.9540     2.7130 h5         1 ABQ       0.046100
     40 H18          6.0320    -1.2010    -0.7030 h1         1 ABQ       0.052700
     41 H18A         5.1890     0.1710    -1.4940 h1         1 ABQ       0.052700
     42 H19          5.1330     2.4740     0.1350 h1         1 ABQ       0.057700
     43 H19A         5.3730     1.8910     1.7990 h1         1 ABQ       0.057700
     44 H20          4.4090    -1.2040     1.1900 hc         1 ABQ       0.077700
     45 H21          3.1560     0.8680     1.6760 h1         1 ABQ       0.063700
     46 H22         -6.4610    -0.3190    -0.3510 hc         1 ABQ       0.047533
     47 H22A        -6.2110     0.2370    -2.0210 hc         1 ABQ       0.047533
     48 H22B        -7.0200    -1.3140    -1.7100 hc         1 ABQ       0.047533
     49 H23         -4.4130    -1.0480    -3.5170 hc         1 ABQ       0.047533
     50 H23A        -3.5550    -2.4270    -2.7940 hc         1 ABQ       0.047533
     51 H23B        -5.2820    -2.5610    -3.1790 hc         1 ABQ       0.047533
     52 H24         -4.9580    -2.2550    -0.7540 h1         1 ABQ       0.095700
     53 HN30         0.2870     1.1310     1.1620 hn         1 ABQ       0.496000
     54 HN3A         0.3300     0.4710     2.7380 hn         1 ABQ       0.496000
     55 HN31         2.5650     0.7280    -1.0760 hn         1 ABQ       0.513000
     56 C17         -1.5990     2.4120    -0.8150 c          1 ABQ       0.522800
     57 C24         -4.8580    -1.3700    -1.3970 c3         1 ABQ       0.084300
     58 O32         -2.1430     3.2370    -1.5480 o          1 ABQ      -0.524100
@<TRIPOS>BOND
     1     1     3 ar  
     2     1    11 ar  
     3     1    32 1   
     4     2     4 ar  
     5     2    11 ar  
     6     2    33 1   
     7     3    12 ar  
     8     3    34 1   
     9     4    12 ar  
    10     4    35 1   
    11     5    13 ar  
    12     5    23 ar  
    13     5    36 1   
    14     6    15 ar  
    15     6    23 ar  
    16     6    37 1   
    17     7    10 2   
    18     7    27 1   
    19     7    38 1   
    20     8    24 ar  
    21     8    25 ar  
    22     8    39 1   
    23     9    10 1   
    24     9    14 ar  
    25     9    16 ar  
    26    10    56 1   
    27    11    19 1   
    28    12    31 1   
    29    13    26 ar  
    30    13    56 1   
    31    14    24 ar  
    32    14    27 1   
    33    15    26 ar  
    34    15    29 1   
    35    16    25 ar  
    36    16    28 1   
    37    17    19 1   
    38    17    30 1   
    39    17    40 1   
    40    17    41 1   
    41    18    20 1   
    42    18    30 1   
    43    18    42 1   
    44    18    43 1   
    45    19    20 1   
    46    19    44 1   
    47    20    29 1   
    48    20    45 1   
    49    21    46 1   
    50    21    47 1   
    51    21    48 1   
    52    21    57 1   
    53    22    49 1   
    54    22    50 1   
    55    22    51 1   
    56    22    57 1   
    57    27    57 1   
    58    28    53 1   
    59    28    54 1   
    60    29    55 1   
    61    52    57 1   
    62    56    58 2   
@<TRIPOS>SUBSTRUCTURE
     1 ABQ         1 TEMP              0 ****  ****    0 ROOT
