@<TRIPOS>MOLECULE
ABQ
   58    62     1     0     0
SMALL
abcg2


@<TRIPOS>ATOM
      1 C1           2.9880    -1.5600     1.5120 ca         1 ABQ      -0.081000
      2 C2           2.8630    -2.4430    -0.7050 ca         1 ABQ      -0.081000
      3 C3           2.1420    -2.5530     1.9720 ca         1 ABQ      -0.149000
      4 C4           2.0120    -3.4500    -0.2620 ca         1 ABQ      -0.149000
      5 C5          -0.1830     3.9380     1.1720 ca         1 ABQ       0.264900
      6 C6           1.9690     3.2460     0.9170 ca         1 ABQ       0.235900
      7 C7          -3.4980     1.1140    -1.1480 cc         1 ABQ      -0.102100
      8 C8          -1.9650    -2.7230     0.3100 ca         1 ABQ       0.176900
      9 C9          -2.1120    -0.0530     0.1780 ca         1 ABQ      -0.194800
     10 C10         -2.5190     1.2760    -0.1940 cd         1 ABQ      -0.198400
     11 C11          3.3580    -1.4800     0.1680 ca         1 ABQ      -0.108300
     12 C12          1.6620    -3.4830     1.0690 ca         1 ABQ       0.204000
     13 C13         -0.6150     2.8310     0.4570 ca         1 ABQ       0.270500
     14 C14         -2.8690    -0.9310    -0.6050 ca         1 ABQ       0.138500
     15 C15          1.5300     2.1090     0.1990 ca         1 ABQ       0.562900
     16 C16         -1.3090    -0.6900     1.1550 ca         1 ABQ       0.438900
     17 C18          4.5270    -0.2290    -1.7760 c5         1 ABQ       0.158600
     18 C19          4.6730     1.8880    -0.8230 c5         1 ABQ       0.139600
     19 C20          4.2650    -0.3630    -0.2760 c5         1 ABQ      -0.064400
     20 C21          3.7610     1.0480     0.0660 c5         1 ABQ       0.208500
     21 C22         -6.0550    -0.3510    -2.0700 c3         1 ABQ      -0.107600
     22 C23         -4.2090    -0.3280    -3.8030 c3         1 ABQ      -0.107600
     23 N25          1.1170     4.1260     1.3920 nb         1 ABQ      -0.611000
     24 N26         -2.8170    -2.2620    -0.5850 nb         1 ABQ      -0.235000
     25 N27         -1.2410    -2.0250     1.1730 nb         1 ABQ      -0.309000
     26 N28          0.2330     1.9330    -0.0240 nb         1 ABQ      -0.705000
     27 N29         -3.6980    -0.1990    -1.4070 na         1 ABQ      -0.175400
     28 N30         -0.6390    -0.0480     2.1180 nv         1 ABQ      -1.069900
     29 N31          2.3650     1.1650    -0.2850 nu         1 ABQ      -0.920100
     30 O33          4.9140     1.1170    -1.9880 os         1 ABQ      -0.449000
     31 F34          0.8380    -4.4480     1.5040 f          1 ABQ      -0.169000
     32 H1           3.3640    -0.8300     2.2190 ha         1 ABQ       0.115000
     33 H2           3.1310    -2.4310    -1.7540 ha         1 ABQ       0.115000
     34 H3           1.8570    -2.6020     3.0150 ha         1 ABQ       0.135000
     35 H4           1.6300    -4.1930    -0.9510 ha         1 ABQ       0.135000
     36 H5          -0.8740     4.6650     1.5790 h4         1 ABQ       0.050100
     37 H6           3.0210     3.4280     1.1040 h4         1 ABQ       0.028100
     38 H7          -4.0280     1.8800    -1.6940 h4         1 ABQ       0.229000
     39 H8          -1.8520    -3.8010     0.3610 h5         1 ABQ       0.046100
     40 H18          5.3180    -0.9010    -2.1140 h1         1 ABQ       0.052700
     41 H18A         3.6300    -0.4500    -2.3660 h1         1 ABQ       0.052700
     42 H19          4.2220     2.8430    -1.1050 h1         1 ABQ       0.057700
     43 H19A         5.6100     2.1000    -0.2960 h1         1 ABQ       0.057700
     44 H20          5.2290    -0.4780     0.2300 hc         1 ABQ       0.077700
     45 H21          3.9160     1.2850     1.1230 h1         1 ABQ       0.063700
     46 H22         -6.3270    -0.6600    -1.0620 hc         1 ABQ       0.047533
     47 H22A        -6.2010     0.7270    -2.1530 hc         1 ABQ       0.047533
     48 H22B        -6.7400    -0.8310    -2.7680 hc         1 ABQ       0.047533
     49 H23         -4.3070     0.7500    -3.9420 hc         1 ABQ       0.047533
     50 H23A        -3.1770    -0.6100    -4.0100 hc         1 ABQ       0.047533
     51 H23B        -4.8470    -0.8170    -4.5380 hc         1 ABQ       0.047533
     52 H24         -4.5270    -1.8290    -2.3120 h1         1 ABQ       0.095700
     53 HN30        -0.5790     0.9500     2.1630 hn         1 ABQ       0.496000
     54 HN3A        -0.0360    -0.5790     2.7220 hn         1 ABQ       0.496000
     55 HN31         1.8940     0.3460    -0.6420 hn         1 ABQ       0.513000
     56 C17         -2.0660     2.6170     0.1670 c          1 ABQ       0.522800
     57 C24         -4.6230    -0.7470    -2.4000 c3         1 ABQ       0.084300
     58 O32         -2.8210     3.5720     0.1640 o          1 ABQ      -0.524100
@<TRIPOS>BOND
     1     1     3 ar  
     2     1    11 ar  
     3     1    32 1   
     4     2     4 ar  
     5     2    11 ar  
     6     2    33 1   
     7     3    12 ar  
     8     3    34 1   
     9     4    12 ar  
    10     4    35 1   
    11     5    13 ar  
    12     5    23 ar  
    13     5    36 1   
    14     6    15 ar  
    15     6    23 ar  
    16     6    37 1   
    17     7    10 2   
    18     7    27 1   
    19     7    38 1   
    20     8    24 ar  
    21     8    25 ar  
    22     8    39 1   
    23     9    10 1   
    24     9    14 ar  
    25     9    16 ar  
    26    10    56 1   
    27    11    19 1   
    28    12    31 1   
    29    13    26 ar  
    30    13    56 1   
    31    14    24 ar  
    32    14    27 1   
    33    15    26 ar  
    34    15    29 1   
    35    16    25 ar  
    36    16    28 1   
    37    17    19 1   
    38    17    30 1   
    39    17    40 1   
    40    17    41 1   
    41    18    20 1   
    42    18    30 1   
    43    18    42 1   
    44    18    43 1   
    45    19    20 1   
    46    19    44 1   
    47    20    29 1   
    48    20    45 1   
    49    21    46 1   
    50    21    47 1   
    51    21    48 1   
    52    21    57 1   
    53    22    49 1   
    54    22    50 1   
    55    22    51 1   
    56    22    57 1   
    57    27    57 1   
    58    28    53 1   
    59    28    54 1   
    60    29    55 1   
    61    52    57 1   
    62    56    58 2   
@<TRIPOS>SUBSTRUCTURE
     1 ABQ         1 TEMP              0 ****  ****    0 ROOT
