@<TRIPOS>MOLECULE
ABU
   15    14     1     0     0
SMALL
abcg2


@<TRIPOS>ATOM
      1 N            3.3540     0.3210    -0.0930 n8         1 ABU      -0.996200
      2 CA           2.1980    -0.5660    -0.0560 c3         1 ABU       0.136800
      3 CB           0.8990     0.2270    -0.0600 c3         1 ABU      -0.055400
      4 CG          -0.3260    -0.6710    -0.0110 c3         1 ABU      -0.205400
      5 CD          -1.6900     0.0440    -0.0080 c          1 ABU       0.717000
      6 OE1         -1.7000     1.2830    -0.1530 o          1 ABU      -0.742500
      7 OE2         -2.6910    -0.6890     0.1350 o          1 ABU      -0.742500
      8 H            3.3890     0.8500     0.7700 hn         1 ABU       0.373000
      9 HN2          4.2030    -0.2310    -0.1050 hn         1 ABU       0.373000
     10 HA1          2.2300    -1.2060    -0.9430 h1         1 ABU       0.012700
     11 HA2          2.1980    -1.2460     0.8090 h1         1 ABU       0.012700
     12 HB1          0.8940     0.9070     0.7980 hc         1 ABU       0.045200
     13 HB2          0.8710     0.8590    -0.9510 hc         1 ABU       0.045200
     14 HG1         -0.3090    -1.3610    -0.8640 hc         1 ABU       0.013700
     15 HG2         -0.2770    -1.3170     0.8740 hc         1 ABU       0.013700
@<TRIPOS>BOND
     1     1     2 1   
     2     1     8 1   
     3     1     9 1   
     4     2     3 1   
     5     2    10 1   
     6     2    11 1   
     7     3     4 1   
     8     3    12 1   
     9     3    13 1   
    10     4     5 1   
    11     4    14 1   
    12     4    15 1   
    13     5     6 1   
    14     5     7 1   
@<TRIPOS>SUBSTRUCTURE
     1 ABU         1 TEMP              0 ****  ****    0 ROOT
