@<TRIPOS>MOLECULE
ABU
   15    14     1     0     0
SMALL
No Charge or Current Charge


@<TRIPOS>ATOM
      1 N            3.3500     0.3460     0.1520 n8         1 ABU      -0.996200
      2 CA           2.2090    -0.5460    -0.1210 c3         1 ABU       0.136800
      3 CB           0.8580     0.1830     0.0450 c3         1 ABU      -0.055400
      4 CG          -0.3620    -0.7300    -0.2330 c3         1 ABU      -0.205400
      5 CD          -1.6690     0.0610    -0.0510 c          1 ABU       0.717000
      6 OE1         -2.1210     0.6590    -1.0160 o          1 ABU      -0.742500
      7 OE2         -2.1710     0.0970     1.0620 o          1 ABU      -0.742500
      8 H            3.3160     0.6390     1.1350 hn         1 ABU       0.373000
      9 HN2          4.2190    -0.1980     0.0890 hn         1 ABU       0.373000
     10 HA1          2.3020    -0.9260    -1.1470 h1         1 ABU       0.012700
     11 HA2          2.2590    -1.3960     0.5730 h1         1 ABU       0.012700
     12 HB1          0.7830     0.5810     1.0650 hc         1 ABU       0.045200
     13 HB2          0.8260     1.0420    -0.6370 hc         1 ABU       0.045200
     14 HG1         -0.2560    -1.0640    -1.2730 hc         1 ABU       0.013700
     15 HG2         -0.2990    -1.5450     0.4990 hc         1 ABU       0.013700
@<TRIPOS>BOND
     1     1     2 1   
     2     1     8 1   
     3     1     9 1   
     4     2     3 1   
     5     2    10 1   
     6     2    11 1   
     7     3     4 1   
     8     3    12 1   
     9     3    13 1   
    10     4     5 1   
    11     4    14 1   
    12     4    15 1   
    13     5     6 1   
    14     5     7 1   
@<TRIPOS>SUBSTRUCTURE
     1 ABU         1 TEMP              0 ****  ****    0 ROOT
