@<TRIPOS>MOLECULE
ABV
   16    17     1     0     0
SMALL
No Charge or Current Charge


@<TRIPOS>ATOM
      1 C1          -1.6020    -1.3030     0.0430 ca         1 ABV      -0.062000
      2 N1           0.9410     1.3620    -0.0780 nc         1 ABV      -0.631100
      3 S1           1.2110    -1.3310    -0.0450 ss         1 ABV      -0.046200
      4 C2          -2.7990    -0.5640     0.0690 ca         1 ABV      -0.119000
      5 C3          -2.7580     0.8460     0.0460 ca         1 ABV      -0.100000
      6 C4          -1.5200     1.5190    -0.0030 ca         1 ABV      -0.078000
      7 C5          -0.3250     0.7800    -0.0300 ca         1 ABV       0.142400
      8 C6          -0.3850    -0.6060    -0.0060 ca         1 ABV      -0.187000
      9 C7           1.7950     0.3500    -0.0920 cd         1 ABV       0.642100
     10 H1          -1.6220    -2.3910     0.0600 ha         1 ABV       0.121000
     11 H2          -3.7560    -1.0800     0.1070 ha         1 ABV       0.115000
     12 HN2          3.3010     1.6520     0.1000 hn         1 ABV       0.488500
     13 HN2A         3.7700    -0.0050     0.1810 hn         1 ABV       0.488500
     14 H3          -3.6840     1.4160     0.0660 ha         1 ABV       0.115000
     15 H4          -1.4880     2.6060    -0.0210 ha         1 ABV       0.130000
     16 N2           3.0960     0.6860    -0.1290 nv         1 ABV      -1.016200
@<TRIPOS>BOND
     1     1     4 ar  
     2     1     8 ar  
     3     1    10 1   
     4     2     7 1   
     5     2     9 2   
     6     3     8 1   
     7     3     9 1   
     8     4     5 ar  
     9     4    11 1   
    10     5     6 ar  
    11     5    14 1   
    12     6     7 ar  
    13     6    15 1   
    14     7     8 ar  
    15     9    16 1   
    16    12    16 1   
    17    13    16 1   
@<TRIPOS>SUBSTRUCTURE
     1 ABV         1 TEMP              0 ****  ****    0 ROOT
