@<TRIPOS>MOLECULE
ABV
   16    17     1     0     0
SMALL
bcc


@<TRIPOS>ATOM
      1 C1          -1.6090    -1.2980     0.0430 ca         1 ABV      -0.080000
      2 N1           0.8970     1.3520    -0.0430 nc         1 ABV      -0.631100
      3 S1           1.2120    -1.2290    -0.0170 ss         1 ABV      -0.173100
      4 C2          -2.7880    -0.5680     0.0570 ca         1 ABV      -0.137000
      5 C3          -2.7590     0.8270     0.0370 ca         1 ABV      -0.118000
      6 C4          -1.5580     1.5170     0.0030 ca         1 ABV      -0.096000
      7 C5          -0.3610     0.8020    -0.0130 ca         1 ABV       0.142400
      8 C6          -0.4110    -0.6020     0.0080 ca         1 ABV      -0.060100
      9 C7           1.8040     0.4320    -0.0480 cd         1 ABV       0.642100
     10 H1          -1.6270    -2.3800     0.0580 ha         1 ABV       0.139000
     11 H2          -3.7370    -1.0880     0.0830 ha         1 ABV       0.133000
     12 HN2          3.4390     1.6010     0.0450 hn         1 ABV       0.433300
     13 HN2A         3.7750    -0.0650     0.1390 hn         1 ABV       0.433300
     14 H3          -3.6890     1.3800     0.0480 ha         1 ABV       0.133000
     15 H4          -1.5380     2.5990    -0.0120 ha         1 ABV       0.148000
     16 N2           3.1260     0.6580    -0.1210 nv         1 ABV      -0.905800
@<TRIPOS>BOND
     1     1     4 ar  
     2     1     8 ar  
     3     1    10 1   
     4     2     7 1   
     5     2     9 2   
     6     3     8 1   
     7     3     9 1   
     8     4     5 ar  
     9     4    11 1   
    10     5     6 ar  
    11     5    14 1   
    12     6     7 ar  
    13     6    15 1   
    14     7     8 ar  
    15     9    16 1   
    16    12    16 1   
    17    13    16 1   
@<TRIPOS>SUBSTRUCTURE
     1 ABV         1 TEMP              0 ****  ****    0 ROOT
