@<TRIPOS>MOLECULE
ABW
   43    43     1     0     0
SMALL
No Charge or Current Charge


@<TRIPOS>ATOM
      1 C1          -0.1270     1.3600    -0.5970 c5         1 ABW      -0.169700
      2 C13         -0.3420    -0.0290     0.0580 c5         1 ABW       0.172300
      3 O6          -1.4850    -0.4910    -0.6850 os         1 ABW      -0.440000
      4 C3          -2.4500     0.5990    -0.7520 c5         1 ABW       0.020300
      5 C4          -1.5900     1.9040    -0.6530 c5         1 ABW      -0.077400
      6 C5          -3.5250     0.5660     0.4060 c          1 ABW       0.708000
      7 O1          -4.4520     1.3650     0.3630 o          1 ABW      -0.722500
      8 O2          -3.4520    -0.2730     1.2960 o          1 ABW      -0.722500
      9 N2           2.1470    -0.4680     0.2570 ns         1 ABW      -0.507900
     10 C6           3.0950    -0.1130    -0.6760 c          1 ABW       0.605100
     11 C7           4.3880     0.4370    -0.0890 c3         1 ABW      -0.179100
     12 O4           2.9180    -0.2310    -1.8800 o          1 ABW      -0.615100
     13 C8           0.8330    -1.0550    -0.0520 c3         1 ABW       0.110700
     14 C2           0.6610    -2.3330     0.8190 c3         1 ABW      -0.070400
     15 C9          -0.5500    -3.2570     0.4990 c3         1 ABW      -0.063700
     16 C10         -0.5170    -3.8100    -0.9460 c3         1 ABW      -0.080100
     17 C15         -0.6380    -4.4150     1.5210 c3         1 ABW      -0.080100
     18 C14          0.7420     2.2620     0.3020 c          1 ABW       0.602100
     19 O3           0.5970     2.4340     1.5060 o          1 ABW      -0.497000
     20 O5           1.6590     2.9380    -0.4600 os         1 ABW      -0.443100
     21 C16          2.5220     3.8840     0.1970 c3         1 ABW       0.151900
     22 H1           0.3070     1.2870    -1.6000 hc         1 ABW       0.082700
     23 H13         -0.6230     0.0750     1.1170 h1         1 ABW       0.075700
     24 H3          -2.9830     0.5340    -1.7090 h1         1 ABW       0.054700
     25 H41         -1.8480     2.4800     0.2450 hc         1 ABW       0.053700
     26 H42         -1.7490     2.5700    -1.5090 hc         1 ABW       0.053700
     27 HN2          2.4000    -0.3410     1.2290 hn         1 ABW       0.307500
     28 H71          4.1540     1.2330     0.6260 hc         1 ABW       0.052033
     29 H72          4.8340    -0.3290     0.5570 hc         1 ABW       0.052033
     30 H73          5.0950     0.7700    -0.8580 hc         1 ABW       0.052033
     31 H8           0.8630    -1.3780    -1.1010 h1         1 ABW       0.087700
     32 H21          1.5760    -2.9340     0.7340 hc         1 ABW       0.027700
     33 H22          0.5990    -2.0230     1.8700 hc         1 ABW       0.027700
     34 H9          -1.4710    -2.6720     0.6130 hc         1 ABW       0.116700
     35 H101        -0.5870    -3.0030    -1.6840 hc         1 ABW       0.024533
     36 H102         0.4100    -4.3670    -1.1300 hc         1 ABW       0.024533
     37 H103        -1.3620    -4.4870    -1.1200 hc         1 ABW       0.024533
     38 H151        -0.7170    -4.0260     2.5430 hc         1 ABW       0.024533
     39 H152        -1.5210    -5.0360     1.3280 hc         1 ABW       0.024533
     40 H153         0.2510    -5.0550     1.4640 hc         1 ABW       0.024533
     41 H161         1.9370     4.6920     0.6560 h1         1 ABW       0.036700
     42 H162         3.1160     3.3960     0.9800 h1         1 ABW       0.036700
     43 H163         3.2140     4.3340    -0.5260 h1         1 ABW       0.036700
@<TRIPOS>BOND
     1     1     2 1   
     2     1     5 1   
     3     1    18 1   
     4     1    22 1   
     5     2     3 1   
     6     2    13 1   
     7     2    23 1   
     8     3     4 1   
     9     4     5 1   
    10     4     6 1   
    11     4    24 1   
    12     5    25 1   
    13     5    26 1   
    14     6     7 1   
    15     6     8 1   
    16     9    10 1   
    17     9    13 1   
    18     9    27 1   
    19    10    11 1   
    20    10    12 2   
    21    11    28 1   
    22    11    29 1   
    23    11    30 1   
    24    13    14 1   
    25    13    31 1   
    26    14    15 1   
    27    14    32 1   
    28    14    33 1   
    29    15    16 1   
    30    15    17 1   
    31    15    34 1   
    32    16    35 1   
    33    16    36 1   
    34    16    37 1   
    35    17    38 1   
    36    17    39 1   
    37    17    40 1   
    38    18    19 2   
    39    18    20 1   
    40    20    21 1   
    41    21    41 1   
    42    21    42 1   
    43    21    43 1   
@<TRIPOS>SUBSTRUCTURE
     1 ABW         1 TEMP              0 ****  ****    0 ROOT
