@<TRIPOS>MOLECULE
ABW
   43    43     1     0     0
SMALL
bcc


@<TRIPOS>ATOM
      1 C1          -0.0730     1.3130    -0.5910 c5         1 ABW      -0.169700
      2 C13         -0.3290    -0.0820    -0.0070 c5         1 ABW       0.149100
      3 O6          -1.4370    -0.5260    -0.7450 os         1 ABW      -0.393600
      4 C3          -2.3610     0.5390    -0.8040 c5         1 ABW      -0.002900
      5 C4          -1.5130     1.8330    -0.7600 c5         1 ABW      -0.077400
      6 C5          -3.4110     0.5060     0.3240 c          1 ABW       0.918600
      7 O1          -4.2420     1.4360     0.2760 o          1 ABW      -0.827800
      8 O2          -3.3530    -0.4130     1.1580 o          1 ABW      -0.827800
      9 N2           2.0760    -0.4210     0.1860 ns         1 ABW      -0.574900
     10 C6           3.0240    -0.0710    -0.7060 c          1 ABW       0.672100
     11 C7           4.2740     0.5230    -0.1080 c3         1 ABW      -0.179100
     12 O4           2.9020    -0.2310    -1.9130 o          1 ABW      -0.615100
     13 C8           0.8250    -1.0760    -0.1490 c3         1 ABW       0.110700
     14 C2           0.6670    -2.3040     0.7530 c3         1 ABW      -0.070400
     15 C9          -0.5860    -3.1590     0.5580 c3         1 ABW      -0.063700
     16 C10         -0.6520    -3.7660    -0.8400 c3         1 ABW      -0.080100
     17 C15         -0.6070    -4.2600     1.6150 c3         1 ABW      -0.080100
     18 C14          0.7460     2.1950     0.3060 c          1 ABW       0.651100
     19 O3           0.5580     2.3230     1.4920 o          1 ABW      -0.546000
     20 O5           1.6920     2.8520    -0.3530 os         1 ABW      -0.419900
     21 C16          2.5060     3.7550     0.3940 c3         1 ABW       0.128700
     22 H1           0.4080     1.2150    -1.5670 hc         1 ABW       0.082700
     23 H13         -0.5870     0.0200     1.0590 h1         1 ABW       0.075700
     24 H3          -2.8890     0.4550    -1.7600 h1         1 ABW       0.054700
     25 H41         -1.8050     2.4700     0.0750 hc         1 ABW       0.053700
     26 H42         -1.6130     2.4290    -1.6670 hc         1 ABW       0.053700
     27 HN2          2.2870    -0.3070     1.1660 hn         1 ABW       0.307500
     28 H71          4.1660     0.8100     0.9360 hc         1 ABW       0.052033
     29 H72          5.0840    -0.2050    -0.1760 hc         1 ABW       0.052033
     30 H73          4.5740     1.3970    -0.6830 hc         1 ABW       0.052033
     31 H8           0.8920    -1.3750    -1.1970 h1         1 ABW       0.087700
     32 H21          1.5510    -2.9380     0.6200 hc         1 ABW       0.027700
     33 H22          0.6950    -1.9580     1.7940 hc         1 ABW       0.027700
     34 H9          -1.4670    -2.5280     0.7040 hc         1 ABW       0.116700
     35 H101        -0.7230    -3.0040    -1.6160 hc         1 ABW       0.024533
     36 H102         0.2320    -4.3750    -1.0450 hc         1 ABW       0.024533
     37 H103        -1.5250    -4.4140    -0.9400 hc         1 ABW       0.024533
     38 H151        -0.5940    -3.8450     2.6250 hc         1 ABW       0.024533
     39 H152        -1.5000    -4.8800     1.5230 hc         1 ABW       0.024533
     40 H153         0.2610    -4.9160     1.5160 hc         1 ABW       0.024533
     41 H161         1.9090     4.5400     0.8580 h1         1 ABW       0.036700
     42 H162         3.0760     3.2370     1.1660 h1         1 ABW       0.036700
     43 H163         3.1930     4.2000    -0.3200 h1         1 ABW       0.036700
@<TRIPOS>BOND
     1     1     2 1   
     2     1     5 1   
     3     1    18 1   
     4     1    22 1   
     5     2     3 1   
     6     2    13 1   
     7     2    23 1   
     8     3     4 1   
     9     4     5 1   
    10     4     6 1   
    11     4    24 1   
    12     5    25 1   
    13     5    26 1   
    14     6     7 1   
    15     6     8 1   
    16     9    10 1   
    17     9    13 1   
    18     9    27 1   
    19    10    11 1   
    20    10    12 2   
    21    11    28 1   
    22    11    29 1   
    23    11    30 1   
    24    13    14 1   
    25    13    31 1   
    26    14    15 1   
    27    14    32 1   
    28    14    33 1   
    29    15    16 1   
    30    15    17 1   
    31    15    34 1   
    32    16    35 1   
    33    16    36 1   
    34    16    37 1   
    35    17    38 1   
    36    17    39 1   
    37    17    40 1   
    38    18    19 2   
    39    18    20 1   
    40    20    21 1   
    41    21    41 1   
    42    21    42 1   
    43    21    43 1   
@<TRIPOS>SUBSTRUCTURE
     1 ABW         1 TEMP              0 ****  ****    0 ROOT
