@<TRIPOS>MOLECULE
ABX
   44    44     1     0     0
SMALL
abcg2


@<TRIPOS>ATOM
      1 C1          24.4650    16.8360    63.2340 c5         1 ABX      -0.143700
      2 C2          25.4350    17.9420    62.7750 c5         1 ABX       0.169500
      3 N1          25.4200    18.9270    63.8720 n7         1 ABX      -0.864400
      4 C3          24.2740    18.6680    64.7600 c5         1 ABX       0.026500
      5 C4          23.4150    17.6250    64.0280 c5         1 ABX      -0.070400
      6 C5          23.4670    19.9400    65.0960 c          1 ABX       0.707000
      7 O1          22.6100    19.8190    66.0070 o          1 ABX      -0.726500
      8 O2          23.7100    20.9760    64.4280 o          1 ABX      -0.726500
      9 N2          26.8070    16.3300    61.5360 ns         1 ABX      -0.505900
     10 C6          27.1620    15.0560    61.7930 c          1 ABX       0.599100
     11 C7          27.0700    14.1030    60.6240 c3         1 ABX      -0.177100
     12 O3          27.5420    14.6690    62.9010 o          1 ABX      -0.622100
     13 C8          26.8520    17.4220    62.5040 c3         1 ABX       0.113700
     14 C9          27.7760    18.5340    62.0070 c3         1 ABX      -0.084400
     15 C10         29.2500    18.1440    61.8540 c3         1 ABX      -0.058700
     16 C11         30.0170    19.2620    61.1470 c3         1 ABX      -0.087600
     17 C12         29.8990    17.8130    63.1990 c3         1 ABX      -0.087600
     18 C13         23.8550    16.0590    62.0990 c          1 ABX       0.598100
     19 O4          23.3220    16.5530    61.1290 o          1 ABX      -0.508000
     20 O5          23.9300    14.7350    62.2960 os         1 ABX      -0.444100
     21 C14         23.3520    13.8980    61.2740 c3         1 ABX       0.149900
     22 H1          24.9850    16.1460    63.8980 hc         1 ABX       0.086700
     23 H2          25.0460    18.3820    61.8490 h1         1 ABX       0.037700
     24 HN1         25.2950    19.8670    63.5100 hn         1 ABX       0.446000
     25 H3          24.6200    18.2430    65.7080 h1         1 ABX       0.056700
     26 H41         22.8320    17.0000    64.7030 hc         1 ABX       0.056700
     27 H42         22.7340    18.1220    63.3320 hc         1 ABX       0.056700
     28 HN2         26.5400    16.5620    60.5920 hn         1 ABX       0.303500
     29 H71         28.0730    13.7460    60.3850 hc         1 ABX       0.052367
     30 H72         26.4720    13.2420    60.9220 hc         1 ABX       0.052367
     31 H73         26.6310    14.5560    59.7360 hc         1 ABX       0.052367
     32 H8          27.2320    16.9960    63.4310 h1         1 ABX       0.094700
     33 H91         27.6980    19.3750    62.7010 hc         1 ABX       0.053200
     34 H92         27.3930    18.8860    61.0420 hc         1 ABX       0.053200
     35 H10         29.3000    17.2500    61.2220 hc         1 ABX       0.035700
     36 H111        29.9910    20.1820    61.7390 hc         1 ABX       0.031033
     37 H112        31.0650    18.9880    61.0020 hc         1 ABX       0.031033
     38 H113        29.5840    19.4810    60.1680 hc         1 ABX       0.031033
     39 H121        29.4100    16.9730    63.6940 hc         1 ABX       0.031033
     40 H122        30.9520    17.5530    63.0660 hc         1 ABX       0.031033
     41 H123        29.8500    18.6760    63.8710 hc         1 ABX       0.031033
     42 H141        23.8330    14.0890    60.3160 h1         1 ABX       0.039700
     43 H142        23.5360    12.8780    61.5970 h1         1 ABX       0.039700
     44 H143        22.2820    14.0870    61.1930 h1         1 ABX       0.039700
@<TRIPOS>BOND
     1     1     2 1   
     2     1     5 1   
     3     1    18 1   
     4     1    22 1   
     5     2     3 1   
     6     2    13 1   
     7     2    23 1   
     8     3     4 1   
     9     3    24 1   
    10     4     5 1   
    11     4     6 1   
    12     4    25 1   
    13     5    26 1   
    14     5    27 1   
    15     6     7 1   
    16     6     8 1   
    17     9    10 1   
    18     9    13 1   
    19     9    28 1   
    20    10    11 1   
    21    10    12 2   
    22    11    29 1   
    23    11    30 1   
    24    11    31 1   
    25    13    14 1   
    26    13    32 1   
    27    14    15 1   
    28    14    33 1   
    29    14    34 1   
    30    15    16 1   
    31    15    17 1   
    32    15    35 1   
    33    16    36 1   
    34    16    37 1   
    35    16    38 1   
    36    17    39 1   
    37    17    40 1   
    38    17    41 1   
    39    18    19 2   
    40    18    20 1   
    41    20    21 1   
    42    21    42 1   
    43    21    43 1   
    44    21    44 1   
@<TRIPOS>SUBSTRUCTURE
     1 ABX         1 TEMP              0 ****  ****    0 ROOT
