@<TRIPOS>MOLECULE
ABX
   44    44     1     0     0
SMALL
No Charge or Current Charge


@<TRIPOS>ATOM
      1 C1          24.4190    16.8520    63.3050 c5         1 ABX      -0.143700
      2 C2          25.4290    17.9450    62.8620 c5         1 ABX       0.169500
      3 N1          25.4050    18.9170    63.9960 n7         1 ABX      -0.864400
      4 C3          24.1170    18.7020    64.7610 c5         1 ABX       0.026500
      5 C4          23.2830    17.7360    63.8790 c5         1 ABX      -0.070400
      6 C5          23.2590    19.9990    65.0730 c          1 ABX       0.707000
      7 O1          22.5170    20.0000    66.0470 o          1 ABX      -0.726500
      8 O2          23.4230    21.0020    64.3880 o          1 ABX      -0.726500
      9 N2          26.8950    16.3470    61.5500 ns         1 ABX      -0.505900
     10 C6          27.1550    15.0270    61.8390 c          1 ABX       0.599100
     11 C7          27.1560    14.1030    60.6280 c3         1 ABX      -0.177100
     12 O3          27.3670    14.6240    62.9730 o          1 ABX      -0.622100
     13 C8          26.8750    17.4420    62.5330 c3         1 ABX       0.113700
     14 C9          27.8270    18.5810    62.0690 c3         1 ABX      -0.084400
     15 C10         29.2960    18.1650    61.7610 c3         1 ABX      -0.058700
     16 C11         30.0980    19.3590    61.1970 c3         1 ABX      -0.087600
     17 C12         30.0140    17.5550    62.9880 c3         1 ABX      -0.087600
     18 C13         23.8940    16.0440    62.0990 c          1 ABX       0.598100
     19 O4          23.4860    16.5060    61.0400 o          1 ABX      -0.508000
     20 O5          23.8380    14.7120    62.4170 os         1 ABX      -0.444100
     21 C14         23.3130    13.7990    61.4370 c3         1 ABX       0.149900
     22 H1          24.8270    16.1770    64.0670 hc         1 ABX       0.086700
     23 H2          25.0430    18.4480    61.9640 h1         1 ABX       0.037700
     24 HN1         25.3940    19.8730    63.6100 hn         1 ABX       0.446000
     25 H3          24.3450    18.2190    65.7210 h1         1 ABX       0.056700
     26 H41         22.5470    17.1660    64.4570 hc         1 ABX       0.056700
     27 H42         22.7430    18.2760    63.0910 hc         1 ABX       0.056700
     28 HN2         26.7380    16.5740    60.5750 hn         1 ABX       0.303500
     29 H71         27.9330    14.4390    59.9320 hc         1 ABX       0.052367
     30 H72         27.2940    13.0500    60.8990 hc         1 ABX       0.052367
     31 H73         26.2410    14.2620    60.0480 hc         1 ABX       0.052367
     32 H8          27.2750    17.0550    63.4790 h1         1 ABX       0.094700
     33 H91         27.8450    19.3650    62.8360 hc         1 ABX       0.053200
     34 H92         27.3970    19.0420    61.1710 hc         1 ABX       0.053200
     35 H10         29.2800    17.3990    60.9760 hc         1 ABX       0.035700
     36 H111        30.1660    20.1690    61.9340 hc         1 ABX       0.031033
     37 H112        31.1170    19.0520    60.9300 hc         1 ABX       0.031033
     38 H113        29.6200    19.7560    60.2930 hc         1 ABX       0.031033
     39 H121        29.5260    16.6310    63.3160 hc         1 ABX       0.031033
     40 H122        31.0550    17.3090    62.7440 hc         1 ABX       0.031033
     41 H123        30.0190    18.2600    63.8290 hc         1 ABX       0.031033
     42 H141        23.9010    13.8360    60.5110 h1         1 ABX       0.039700
     43 H142        23.3430    12.7710    61.8190 h1         1 ABX       0.039700
     44 H143        22.2700    14.0430    61.1960 h1         1 ABX       0.039700
@<TRIPOS>BOND
     1     1     2 1   
     2     1     5 1   
     3     1    18 1   
     4     1    22 1   
     5     2     3 1   
     6     2    13 1   
     7     2    23 1   
     8     3     4 1   
     9     3    24 1   
    10     4     5 1   
    11     4     6 1   
    12     4    25 1   
    13     5    26 1   
    14     5    27 1   
    15     6     7 1   
    16     6     8 1   
    17     9    10 1   
    18     9    13 1   
    19     9    28 1   
    20    10    11 1   
    21    10    12 2   
    22    11    29 1   
    23    11    30 1   
    24    11    31 1   
    25    13    14 1   
    26    13    32 1   
    27    14    15 1   
    28    14    33 1   
    29    14    34 1   
    30    15    16 1   
    31    15    17 1   
    32    15    35 1   
    33    16    36 1   
    34    16    37 1   
    35    16    38 1   
    36    17    39 1   
    37    17    40 1   
    38    17    41 1   
    39    18    19 2   
    40    18    20 1   
    41    20    21 1   
    42    21    42 1   
    43    21    43 1   
    44    21    44 1   
@<TRIPOS>SUBSTRUCTURE
     1 ABX         1 TEMP              0 ****  ****    0 ROOT
