@<TRIPOS>MOLECULE
ABY
   50    50     1     0     0
SMALL
No Charge or Current Charge


@<TRIPOS>ATOM
      1 C7           1.6950    -0.6210     8.1400 c3         1 ABY       0.150900
      2 O4           1.6350     0.4310     7.1610 os         1 ABY      -0.344100
      3 C4           0.8620     0.3330     6.0220 ca         1 ABY       0.138100
      4 C5           0.8720     1.4140     5.1270 ca         1 ABY      -0.174500
      5 C6           0.1060     1.3720     3.9490 ca         1 ABY      -0.057000
      6 C1          -0.6810     0.2420     3.6570 ca         1 ABY      -0.105300
      7 C2          -0.6910    -0.8450     4.5520 ca         1 ABY      -0.057000
      8 C3           0.0760    -0.8030     5.7300 ca         1 ABY      -0.174500
      9 C           -1.5130     0.1950     2.3840 c3         1 ABY       0.122900
     10 SG2         -0.5250    -0.5140     0.9890 ss         1 ABY      -0.464000
     11 CB2         -1.7850    -0.4260    -0.3710 c3         1 ABY       0.055600
     12 CA2         -1.2090    -0.9480    -1.7070 c3         1 ABY       0.041700
     13 N2           0.0120    -0.1890    -2.0910 ns         1 ABY      -0.512900
     14 CD1          1.1760    -0.7670    -2.5470 c          1 ABY       0.604100
     15 OE1          1.2510    -1.9550    -2.8230 o          1 ABY      -0.590100
     16 CG1          2.3490     0.1990    -2.7320 c3         1 ABY      -0.159400
     17 CB1          3.4180     0.0070    -1.6290 c3         1 ABY      -0.065400
     18 CA1          4.6180     0.9640    -1.7830 c3         1 ABY       0.145800
     19 N1           5.6220     0.7510    -0.7250 n8         1 ABY      -0.992200
     20 C8          -2.2950    -0.9370    -2.8250 c          1 ABY       0.583100
     21 O2          -3.3700    -1.5140    -2.7020 o          1 ABY      -0.650100
     22 N3          -1.9870    -0.2280    -3.9670 ns         1 ABY      -0.447900
     23 CA3         -2.8650    -0.0860    -5.1520 c3         1 ABY      -0.059000
     24 C9          -2.2840     0.9010    -6.2030 c          1 ABY       0.714000
     25 O31         -1.0780     1.1140    -6.2040 o          1 ABY      -0.730500
     26 O32         -3.0650     1.4560    -6.9610 o          1 ABY      -0.730500
     27 H7'1         2.3640    -0.3380     8.9620 h1         1 ABY       0.037700
     28 H7'2         0.7010    -0.8170     8.5630 h1         1 ABY       0.037700
     29 H7'3         2.0770    -1.5480     7.6940 h1         1 ABY       0.037700
     30 H5           1.4780     2.2900     5.3460 ha         1 ABY       0.119000
     31 H6           0.1250     2.2160     3.2630 ha         1 ABY       0.118000
     32 H2          -1.2930    -1.7250     4.3330 ha         1 ABY       0.118000
     33 H3           0.0470    -1.6570     6.4000 ha         1 ABY       0.119000
     34 H'1         -2.4070    -0.4210     2.5430 h1         1 ABY       0.064700
     35 H'2         -1.8420     1.2080     2.1150 h1         1 ABY       0.064700
     36 HB21        -2.6580    -1.0290    -0.0870 h1         1 ABY       0.076700
     37 HB22        -2.1150     0.6140    -0.4930 h1         1 ABY       0.076700
     38 HA2         -0.9360    -2.0010    -1.5640 h1         1 ABY       0.087700
     39 HN2          0.0610     0.7960    -1.8560 hn         1 ABY       0.320500
     40 HG11         2.8150     0.0030    -3.7050 hc         1 ABY       0.060700
     41 HG12         1.9930     1.2360    -2.6930 hc         1 ABY       0.060700
     42 HB11         2.9520     0.1630    -0.6470 hc         1 ABY       0.060200
     43 HB12         3.7780    -1.0290    -1.6520 hc         1 ABY       0.060200
     44 HA11         5.0970     0.8010    -2.7590 h1         1 ABY       0.024700
     45 HA12         4.2710     2.0060    -1.7350 h1         1 ABY       0.024700
     46 HN11         6.3740     1.4420    -0.8350 hn         1 ABY       0.385000
     47 HN12         5.2060     0.9900     0.1830 hn         1 ABY       0.385000
     48 HN3         -1.0710     0.2060    -3.9960 hn         1 ABY       0.342500
     49 HA31        -2.9890    -1.0670    -5.6280 h1         1 ABY       0.038200
     50 HA32        -3.8480     0.2800    -4.8290 h1         1 ABY       0.038200
@<TRIPOS>BOND
     1     1     2 1   
     2     1    27 1   
     3     1    28 1   
     4     1    29 1   
     5     2     3 1   
     6     3     4 ar  
     7     3     8 ar  
     8     4     5 ar  
     9     4    30 1   
    10     5     6 ar  
    11     5    31 1   
    12     6     7 ar  
    13     6     9 1   
    14     7     8 ar  
    15     7    32 1   
    16     8    33 1   
    17     9    10 1   
    18     9    34 1   
    19     9    35 1   
    20    10    11 1   
    21    11    12 1   
    22    11    36 1   
    23    11    37 1   
    24    12    13 1   
    25    12    20 1   
    26    12    38 1   
    27    13    14 1   
    28    13    39 1   
    29    14    15 2   
    30    14    16 1   
    31    16    17 1   
    32    16    40 1   
    33    16    41 1   
    34    17    18 1   
    35    17    42 1   
    36    17    43 1   
    37    18    19 1   
    38    18    44 1   
    39    18    45 1   
    40    19    46 1   
    41    19    47 1   
    42    20    21 2   
    43    20    22 1   
    44    22    23 1   
    45    22    48 1   
    46    23    24 1   
    47    23    49 1   
    48    23    50 1   
    49    24    25 1   
    50    24    26 1   
@<TRIPOS>SUBSTRUCTURE
     1 ABY         1 TEMP              0 ****  ****    0 ROOT
