@<TRIPOS>MOLECULE
ABY
   50    50     1     0     0
SMALL
bcc


@<TRIPOS>ATOM
      1 C7           0.6560    -0.1580     8.5110 c3         1 ABY       0.127700
      2 O4           0.8470     0.7320     7.4300 os         1 ABY      -0.320900
      3 C4           0.1820     0.5020     6.2820 ca         1 ABY       0.138100
      4 C5           0.4060     1.4110     5.2440 ca         1 ABY      -0.192500
      5 C6          -0.2300     1.2490     4.0290 ca         1 ABY      -0.075000
      6 C1          -1.1100     0.1880     3.8090 ca         1 ABY      -0.105300
      7 C2          -1.3210    -0.7090     4.8460 ca         1 ABY      -0.075000
      8 C3          -0.6910    -0.5630     6.0770 ca         1 ABY      -0.192500
      9 C           -1.7680     0.0060     2.4770 c3         1 ABY       0.075000
     10 SG2         -0.5820    -0.8070     1.3550 ss         1 ABY      -0.368200
     11 CB2         -1.5550    -0.7840    -0.1800 c3         1 ABY       0.007700
     12 CA2         -0.6940    -1.2180    -1.3630 c3         1 ABY       0.041700
     13 N2           0.4230    -0.3220    -1.5210 ns         1 ABY      -0.579900
     14 CD1          1.4390    -0.6010    -2.3660 c          1 ABY       0.671100
     15 OE1          1.4280    -1.5980    -3.0710 o          1 ABY      -0.590100
     16 CG1          2.5480     0.4250    -2.3910 c3         1 ABY      -0.159400
     17 CB1          3.8610    -0.1130    -2.9360 c3         1 ABY      -0.065400
     18 CA1          4.9480     0.9520    -2.9350 c3         1 ABY       0.145800
     19 N1           6.1860     0.4230    -3.4870 n8         1 ABY      -0.881800
     20 C8          -1.5990    -1.2910    -2.5990 c          1 ABY       0.650100
     21 O2          -2.2710    -2.2950    -2.8060 o          1 ABY      -0.650100
     22 N3          -1.6440    -0.1930    -3.3460 ns         1 ABY      -0.514900
     23 CA3         -2.4720    -0.0350    -4.5130 c3         1 ABY      -0.059000
     24 C9          -2.2730     1.3620    -5.1360 c          1 ABY       0.924600
     25 O31         -1.4600     2.1220    -4.5740 o          1 ABY      -0.835800
     26 O32         -2.9520     1.5920    -6.1500 o          1 ABY      -0.835800
     27 H7'1         1.2880     0.1980     9.3210 h1         1 ABY       0.037700
     28 H7'2        -0.3810    -0.1680     8.8550 h1         1 ABY       0.037700
     29 H7'3         0.9530    -1.1790     8.2560 h1         1 ABY       0.037700
     30 H5           1.0820     2.2420     5.4010 ha         1 ABY       0.137000
     31 H6          -0.0410     1.9620     3.2360 ha         1 ABY       0.136000
     32 H2          -1.9980    -1.5440     4.7040 ha         1 ABY       0.136000
     33 H3          -0.8940    -1.2870     6.8540 ha         1 ABY       0.137000
     34 H'1         -2.6640    -0.6100     2.5590 h1         1 ABY       0.064700
     35 H'2         -2.0520     0.9650     2.0400 h1         1 ABY       0.064700
     36 HB21        -2.4040    -1.4620    -0.0910 h1         1 ABY       0.076700
     37 HB22        -1.9400     0.2260    -0.3420 h1         1 ABY       0.076700
     38 HA2         -0.3340    -2.2360    -1.1850 h1         1 ABY       0.087700
     39 HN2          0.5010     0.4690    -0.8990 hn         1 ABY       0.320500
     40 HG11         2.2050     1.2640    -3.0070 hc         1 ABY       0.060700
     41 HG12         2.6880     0.8350    -1.3870 hc         1 ABY       0.060700
     42 HB11         4.1900    -0.9650    -2.3330 hc         1 ABY       0.060200
     43 HB12         3.7240    -0.4810    -3.9540 hc         1 ABY       0.060200
     44 HA11         4.6270     1.7910    -3.5580 h1         1 ABY       0.024700
     45 HA12         5.0570     1.3520    -1.9160 h1         1 ABY       0.024700
     46 HN11         6.8850     1.1550    -3.5130 hn         1 ABY       0.329800
     47 HN12         6.5560    -0.2830    -2.8620 hn         1 ABY       0.329800
     48 HN3         -1.0600     0.6050    -3.1320 hn         1 ABY       0.342500
     49 HA31        -2.2380    -0.7960    -5.2640 h1         1 ABY       0.038200
     50 HA32        -3.5280    -0.1650    -4.2600 h1         1 ABY       0.038200
@<TRIPOS>BOND
     1     1     2 1   
     2     1    27 1   
     3     1    28 1   
     4     1    29 1   
     5     2     3 1   
     6     3     4 ar  
     7     3     8 ar  
     8     4     5 ar  
     9     4    30 1   
    10     5     6 ar  
    11     5    31 1   
    12     6     7 ar  
    13     6     9 1   
    14     7     8 ar  
    15     7    32 1   
    16     8    33 1   
    17     9    10 1   
    18     9    34 1   
    19     9    35 1   
    20    10    11 1   
    21    11    12 1   
    22    11    36 1   
    23    11    37 1   
    24    12    13 1   
    25    12    20 1   
    26    12    38 1   
    27    13    14 1   
    28    13    39 1   
    29    14    15 2   
    30    14    16 1   
    31    16    17 1   
    32    16    40 1   
    33    16    41 1   
    34    17    18 1   
    35    17    42 1   
    36    17    43 1   
    37    18    19 1   
    38    18    44 1   
    39    18    45 1   
    40    19    46 1   
    41    19    47 1   
    42    20    21 2   
    43    20    22 1   
    44    22    23 1   
    45    22    48 1   
    46    23    24 1   
    47    23    49 1   
    48    23    50 1   
    49    24    25 1   
    50    24    26 1   
@<TRIPOS>SUBSTRUCTURE
     1 ABY         1 TEMP              0 ****  ****    0 ROOT
