@<TRIPOS>MOLECULE
ABZ
   41    44     1     0     0
SMALL
abcg2


@<TRIPOS>ATOM
      1 C1          -0.4380     0.6800    -3.1840 ca         1 ABZ      -0.009300
      2 C7           0.1920     1.8970    -2.5780 c3         1 ABZ      -0.075400
      3 C2           0.3930    -0.3410    -3.6740 ca         1 ABZ      -0.090800
      4 N10          0.8730    -2.3010    -4.6380 na         1 ABZ      -0.219700
      5 C3          -0.1620    -1.5000    -4.2560 ca         1 ABZ      -0.051200
      6 C4          -1.5380    -1.6820    -4.3650 ca         1 ABZ      -0.115000
      7 C5          -2.3510    -0.6820    -3.8760 ca         1 ABZ      -0.089000
      8 C6          -1.7990     0.4720    -3.2940 ca         1 ABZ       0.114000
      9 C25          1.8130    -0.4930    -3.7240 cc         1 ABZ      -0.240200
     10 C8           0.7070     1.6530    -1.1870 ca         1 ABZ       0.233300
     11 N1          -0.0580     0.9450    -0.3730 nb         1 ABZ      -0.297000
     12 C9           0.4340     0.7950     0.8610 ca         1 ABZ       0.434900
     13 N5          -0.3660     0.0670     1.6880 nu         1 ABZ      -0.922900
     14 N2           1.5780     1.2830     1.2970 nb         1 ABZ      -0.341000
     15 C10          2.2690     1.9820     0.3900 ca         1 ABZ       0.436900
     16 N4           3.4360     2.4990     0.7670 nv         1 ABZ      -1.064900
     17 N3           1.8730     2.1920    -0.8740 nb         1 ABZ      -0.316000
     18 C11         -0.2410    -0.2770     3.0190 ca         1 ABZ       0.347000
     19 C12          0.8240     0.0970     3.8480 ca         1 ABZ      -0.164500
     20 C13          0.8370    -0.2970     5.1720 ca         1 ABZ      -0.040000
     21 C14         -0.1970    -1.0670     5.7010 ca         1 ABZ      -0.060000
     22 C15         -1.2590    -1.4460     4.8770 ca         1 ABZ      -0.040000
     23 C16         -1.2770    -1.0560     3.5580 ca         1 ABZ      -0.164500
     24 C17         -0.1710    -1.4630     7.0680 cg         1 ABZ       0.332000
     25 N6          -0.1530    -1.7780     8.1770 n1         1 ABZ      -0.463000
     26 C26          2.0540    -1.6990    -4.3190 cd         1 ABZ      -0.161100
     27 CL          -2.9200     1.6650    -2.6980 cl         1 ABZ      -0.215000
     28 H71         -0.5220     2.7220    -2.5220 hc         1 ABZ       0.083200
     29 H72          1.0190     2.2450    -3.1990 hc         1 ABZ       0.083200
     30 H10          0.7850    -3.1930    -5.0950 hn         1 ABZ       0.350000
     31 H4          -1.9640    -2.5700    -4.8130 ha         1 ABZ       0.118000
     32 H5          -3.4250    -0.7850    -3.9370 ha         1 ABZ       0.127000
     33 H25          2.5600     0.1950    -3.3620 ha         1 ABZ       0.212000
     34 HN5         -1.2040    -0.2600     1.2290 hn         1 ABZ       0.519000
     35 HN41         3.7570     2.4000     1.7140 hn         1 ABZ       0.509000
     36 HN42         3.9740     3.0580     0.1290 hn         1 ABZ       0.509000
     37 H12          1.6350     0.6890     3.4610 ha         1 ABZ       0.136500
     38 H13          1.6650     0.0010     5.8010 ha         1 ABZ       0.124000
     39 H15         -2.0700    -2.0440     5.2710 ha         1 ABZ       0.124000
     40 H16         -2.1050    -1.3580     2.9290 ha         1 ABZ       0.136500
     41 H26          2.9920    -2.1820    -4.5400 h4         1 ABZ       0.213000
@<TRIPOS>BOND
     1     1     2 1   
     2     1     3 ar  
     3     1     8 ar  
     4     2    10 1   
     5     2    28 1   
     6     2    29 1   
     7     3     5 ar  
     8     3     9 1   
     9     4     5 1   
    10     4    26 1   
    11     4    30 1   
    12     5     6 ar  
    13     6     7 ar  
    14     6    31 1   
    15     7     8 ar  
    16     7    32 1   
    17     8    27 1   
    18     9    26 2   
    19     9    33 1   
    20    10    11 ar  
    21    10    17 ar  
    22    11    12 ar  
    23    12    13 1   
    24    12    14 ar  
    25    13    18 1   
    26    13    34 1   
    27    14    15 ar  
    28    15    16 1   
    29    15    17 ar  
    30    16    35 1   
    31    16    36 1   
    32    18    19 ar  
    33    18    23 ar  
    34    19    20 ar  
    35    19    37 1   
    36    20    21 ar  
    37    20    38 1   
    38    21    22 ar  
    39    21    24 1   
    40    22    23 ar  
    41    22    39 1   
    42    23    40 1   
    43    24    25 3   
    44    26    41 1   
@<TRIPOS>SUBSTRUCTURE
     1 ABZ         1 TEMP              0 ****  ****    0 ROOT
