@<TRIPOS>MOLECULE
ABZ
   41    44     1     0     0
SMALL
No Charge or Current Charge


@<TRIPOS>ATOM
      1 C1          -0.4780     0.6010    -3.2250 ca         1 ABZ      -0.009300
      2 C7           0.0110     1.8260    -2.4510 c3         1 ABZ      -0.075400
      3 C2           0.4250    -0.1700    -3.9830 ca         1 ABZ      -0.090800
      4 N10          1.1140    -1.8520    -5.3440 na         1 ABZ      -0.219700
      5 C3           0.0370    -1.2760    -4.6880 ca         1 ABZ      -0.051200
      6 C4          -1.2930    -1.7090    -4.6930 ca         1 ABZ      -0.115000
      7 C5          -2.2320    -0.9710    -3.9440 ca         1 ABZ      -0.089000
      8 C6          -1.8340     0.1740    -3.2140 ca         1 ABZ       0.114000
      9 C25          1.8360    -0.0230    -4.1910 cc         1 ABZ      -0.240200
     10 C8           0.6000     1.4480    -1.1000 ca         1 ABZ       0.233300
     11 N1          -0.2550     1.0370    -0.1390 nb         1 ABZ      -0.297000
     12 C9           0.3200     0.7200     1.0310 ca         1 ABZ       0.434900
     13 N5          -0.5490     0.2650     2.0070 nu         1 ABZ      -0.922900
     14 N2           1.6370     0.7640     1.2910 nb         1 ABZ      -0.341000
     15 C10          2.3790     1.1860     0.2640 ca         1 ABZ       0.436900
     16 N4           3.7090     1.2640     0.4720 nv         1 ABZ      -1.064900
     17 N3           1.9380     1.5460    -0.9460 nb         1 ABZ      -0.316000
     18 C11         -0.4230    -0.0670     3.3580 ca         1 ABZ       0.347000
     19 C12          0.5610     0.5030     4.1870 ca         1 ABZ      -0.164500
     20 C13          0.6430     0.1520     5.5470 ca         1 ABZ      -0.040000
     21 C14         -0.2690    -0.7710     6.0930 ca         1 ABZ      -0.060000
     22 C15         -1.2650    -1.3320     5.2720 ca         1 ABZ      -0.040000
     23 C16         -1.3400    -0.9750     3.9130 ca         1 ABZ      -0.164500
     24 C17         -0.1890    -1.1310     7.4820 cg         1 ABZ       0.332000
     25 N6          -0.1330    -1.4210     8.6120 n1         1 ABZ      -0.463000
     26 C26          2.2410    -1.0580    -5.0240 cd         1 ABZ      -0.161100
     27 Cl          -3.0690     1.0390    -2.2950 cl         1 ABZ      -0.215000
     28 H71         -0.7960     2.5530    -2.3090 hc         1 ABZ       0.083200
     29 H72          0.7570     2.3630    -3.0490 hc         1 ABZ       0.083200
     30 H10          1.0960    -2.6800    -5.9330 hn         1 ABZ       0.350000
     31 H4          -1.5960    -2.5910    -5.2540 ha         1 ABZ       0.118000
     32 H5          -3.2730    -1.2850    -3.9260 ha         1 ABZ       0.127000
     33 H25          2.4890     0.7440    -3.7780 ha         1 ABZ       0.212000
     34 HN5         -1.4710     0.0650     1.6240 hn         1 ABZ       0.519000
     35 HN41         4.0430     1.2320     1.4320 hn         1 ABZ       0.509000
     36 HN42         4.2680     1.8030    -0.1840 hn         1 ABZ       0.509000
     37 H12          1.2570     1.2350     3.7930 ha         1 ABZ       0.136500
     38 H13          1.4100     0.6020     6.1740 ha         1 ABZ       0.124000
     39 H15         -1.9800    -2.0430     5.6830 ha         1 ABZ       0.124000
     40 H16         -2.1130    -1.4160     3.2900 ha         1 ABZ       0.136500
     41 H26          3.2340    -1.2870    -5.4070 h4         1 ABZ       0.213000
@<TRIPOS>BOND
     1     1     2 1   
     2     1     3 ar  
     3     1     8 ar  
     4     2    10 1   
     5     2    28 1   
     6     2    29 1   
     7     3     5 ar  
     8     3     9 1   
     9     4     5 1   
    10     4    26 1   
    11     4    30 1   
    12     5     6 ar  
    13     6     7 ar  
    14     6    31 1   
    15     7     8 ar  
    16     7    32 1   
    17     8    27 1   
    18     9    26 2   
    19     9    33 1   
    20    10    11 ar  
    21    10    17 ar  
    22    11    12 ar  
    23    12    13 1   
    24    12    14 ar  
    25    13    18 1   
    26    13    34 1   
    27    14    15 ar  
    28    15    16 1   
    29    15    17 ar  
    30    16    35 1   
    31    16    36 1   
    32    18    19 ar  
    33    18    23 ar  
    34    19    20 ar  
    35    19    37 1   
    36    20    21 ar  
    37    20    38 1   
    38    21    22 ar  
    39    21    24 1   
    40    22    23 ar  
    41    22    39 1   
    42    23    40 1   
    43    24    25 3   
    44    26    41 1   
@<TRIPOS>SUBSTRUCTURE
     1 ABZ         1 TEMP              0 ****  ****    0 ROOT
