@<TRIPOS>MOLECULE
AC0
   17    17     1     0     0
SMALL
abcg2


@<TRIPOS>ATOM
      1 O1           2.2220    -1.2170     0.0420 o          1 AC0      -0.525100
      2 C7           1.6790    -0.1310     0.0190 c          1 AC0       0.582700
      3 C8           2.4800     1.1410    -0.0140 c3         1 AC0      -0.195100
      4 C1           0.1920    -0.0310     0.0220 ca         1 AC0      -0.178600
      5 C2          -0.5680    -1.2020     0.0370 ca         1 AC0      -0.064000
      6 C3          -1.9510    -1.1410     0.0410 ca         1 AC0      -0.125000
      7 C4          -2.5930     0.0920     0.0300 ca         1 AC0      -0.084000
      8 C5          -1.8470     1.2630     0.0150 ca         1 AC0      -0.125000
      9 C6          -0.4610     1.2010     0.0110 ca         1 AC0      -0.064000
     10 H81          3.5440     0.9180    -0.0210 hc         1 AC0       0.061033
     11 H82          2.2380     1.7310    -0.9000 hc         1 AC0       0.061033
     12 H83          2.2570     1.7650     0.8530 hc         1 AC0       0.061033
     13 H2          -0.0740    -2.1650     0.0460 ha         1 AC0       0.123500
     14 H3          -2.5320    -2.0530     0.0520 ha         1 AC0       0.117000
     15 H4          -3.6740     0.1400     0.0330 ha         1 AC0       0.114000
     16 H5          -2.3430     2.2250     0.0070 ha         1 AC0       0.117000
     17 H6           0.1050     2.1230    -0.0010 ha         1 AC0       0.123500
@<TRIPOS>BOND
     1     1     2 2   
     2     2     3 1   
     3     2     4 1   
     4     3    10 1   
     5     3    11 1   
     6     3    12 1   
     7     4     5 ar  
     8     4     9 ar  
     9     5     6 ar  
    10     5    13 1   
    11     6     7 ar  
    12     6    14 1   
    13     7     8 ar  
    14     7    15 1   
    15     8     9 ar  
    16     8    16 1   
    17     9    17 1   
@<TRIPOS>SUBSTRUCTURE
     1 AC0         1 TEMP              0 ****  ****    0 ROOT
