@<TRIPOS>MOLECULE
AC0
   17    17     1     0     0
SMALL
No Charge or Current Charge


@<TRIPOS>ATOM
      1 O1           2.2730    -1.2250     0.0240 o          1 AC0      -0.525100
      2 C7           1.7130    -0.1350     0.0120 c          1 AC0       0.582700
      3 C8           2.5550     1.1430    -0.0100 c3         1 AC0      -0.195100
      4 C1           0.1980    -0.0380     0.0190 ca         1 AC0      -0.178600
      5 C2          -0.5800    -1.2190     0.0390 ca         1 AC0      -0.064000
      6 C3          -1.9840    -1.1540     0.0450 ca         1 AC0      -0.125000
      7 C4          -2.6330     0.0890     0.0320 ca         1 AC0      -0.084000
      8 C5          -1.8750     1.2700     0.0120 ca         1 AC0      -0.125000
      9 C6          -0.4710     1.2110     0.0050 ca         1 AC0      -0.064000
     10 H81          3.6320     0.9380    -0.0130 hc         1 AC0       0.061033
     11 H82          2.2620     1.7510    -0.8730 hc         1 AC0       0.061033
     12 H83          2.2710     1.7740     0.8390 hc         1 AC0       0.061033
     13 H2          -0.1000    -2.1960     0.0490 ha         1 AC0       0.123500
     14 H3          -2.5700    -2.0710     0.0610 ha         1 AC0       0.117000
     15 H4          -3.7200     0.1380     0.0370 ha         1 AC0       0.114000
     16 H5          -2.3770     2.2350     0.0020 ha         1 AC0       0.117000
     17 H6           0.0830     2.1470    -0.0100 ha         1 AC0       0.123500
@<TRIPOS>BOND
     1     1     2 2   
     2     2     3 1   
     3     2     4 1   
     4     3    10 1   
     5     3    11 1   
     6     3    12 1   
     7     4     5 ar  
     8     4     9 ar  
     9     5     6 ar  
    10     5    13 1   
    11     6     7 ar  
    12     6    14 1   
    13     7     8 ar  
    14     7    15 1   
    15     8     9 ar  
    16     8    16 1   
    17     9    17 1   
@<TRIPOS>SUBSTRUCTURE
     1 AC0         1 TEMP              0 ****  ****    0 ROOT
