@<TRIPOS>MOLECULE
AC1
   45    46     1     0     0
SMALL
No Charge or Current Charge


@<TRIPOS>ATOM
      1 C1          13.9790     6.4410    48.5490 c6         1 AC1       0.386300
      2 O2          13.3670     8.1340    50.3320 oh         1 AC1      -0.707000
      3 C2          14.4090     7.2850    49.8070 c6         1 AC1       0.161300
      4 C4A         21.6880     9.4350    49.2850 c6         1 AC1       0.185500
      5 C3          15.6530     8.1530    49.4700 c6         1 AC1       0.104300
      6 O3          16.0340     8.9430    50.6190 oh         1 AC1      -0.740000
      7 C4          16.8120     7.2310    48.9570 c6         1 AC1       0.131500
      8 N4A         18.0400     8.0180    48.6250 n7         1 AC1      -0.883400
      9 C5          16.2890     6.4060    47.7310 c6         1 AC1       0.180300
     10 O5          15.0940     5.6560    48.0840 os         1 AC1      -0.493000
     11 C6          17.3200     5.3640    47.2280 c3         1 AC1      -0.081100
     12 C1B         18.9820     8.2020    49.7540 c6         1 AC1       0.218700
     13 C2B         19.2750     9.7200    50.0010 c6         1 AC1       0.174300
     14 O2B         18.0830    10.5200    49.8350 oh         1 AC1      -0.740000
     15 C3B         20.3710    10.2230    49.0260 c6         1 AC1       0.137300
     16 O3B         20.5840    11.6420    49.1850 oh         1 AC1      -0.682000
     17 O4          22.6980     9.8390    48.3550 oh         1 AC1      -0.731000
     18 C5B         21.4590     7.9160    49.2140 c2         1 AC1      -0.134400
     19 C7B         20.2350     7.3940    49.4440 c2         1 AC1      -0.190200
     20 C6B         22.6480     7.0120    48.8740 c3         1 AC1       0.194800
     21 O6B         23.9110     7.6160    49.1970 oh         1 AC1      -0.678000
     22 O1          13.5530     7.2420    47.4440 oh         1 AC1      -0.728000
     23 H1          13.1630     5.7620    48.8490 h2         1 AC1       0.077700
     24 HO2         13.8750     8.8450    50.7950 ho         1 AC1       0.520000
     25 H2          14.7080     6.5660    50.5850 h1         1 AC1       0.054700
     26 HC4         22.0220     9.6650    50.3090 h1         1 AC1       0.063700
     27 H3          15.3780     8.8280    48.6440 h1         1 AC1       0.065700
     28 HO3         16.8200     9.4950    50.3300 ho         1 AC1       0.516000
     29 H4          17.0540     6.4990    49.7430 h1         1 AC1       0.066700
     30 HN4         17.7520     8.9590    48.3250 hn         1 AC1       0.440000
     31 H5          16.0610     7.0880    46.8990 h1         1 AC1       0.054700
     32 H61         16.9100     4.7760    46.3980 hc         1 AC1       0.046700
     33 H62         18.2330     5.8510    46.8660 hc         1 AC1       0.046700
     34 H63         17.6060     4.6690    48.0270 hc         1 AC1       0.046700
     35 HCB1        18.5390     7.8030    50.6800 h1         1 AC1       0.051700
     36 HCB2        19.6600     9.8290    51.0270 h1         1 AC1       0.052700
     37 HO2B        18.4380    11.4300    49.6640 ho         1 AC1       0.534000
     38 HCB3        20.0450    10.0040    47.9970 h1         1 AC1       0.075700
     39 HOB3        21.4650    11.8100    48.7760 ho         1 AC1       0.466000
     40 HO4         23.3940     9.1390    48.4930 ho         1 AC1       0.517000
     41 HC7         20.0780     6.3170    49.3900 ha         1 AC1       0.180000
     42 HC61        22.5410     6.0660    49.4220 h1         1 AC1       0.038700
     43 HC62        22.6120     6.7660    47.8040 h1         1 AC1       0.038700
     44 HO6B        24.5880     6.9020    49.1440 ho         1 AC1       0.447000
     45 HO1         13.4040     6.5980    46.7180 ho         1 AC1       0.512000
@<TRIPOS>BOND
     1     1     3 1   
     2     1    10 1   
     3     1    22 1   
     4     1    23 1   
     5     2     3 1   
     6     2    24 1   
     7     3     5 1   
     8     3    25 1   
     9     4    15 1   
    10     4    17 1   
    11     4    18 1   
    12     4    26 1   
    13     5     6 1   
    14     5     7 1   
    15     5    27 1   
    16     6    28 1   
    17     7     8 1   
    18     7     9 1   
    19     7    29 1   
    20     8    12 1   
    21     8    30 1   
    22     9    10 1   
    23     9    11 1   
    24     9    31 1   
    25    11    32 1   
    26    11    33 1   
    27    11    34 1   
    28    12    13 1   
    29    12    19 1   
    30    12    35 1   
    31    13    14 1   
    32    13    15 1   
    33    13    36 1   
    34    14    37 1   
    35    15    16 1   
    36    15    38 1   
    37    16    39 1   
    38    17    40 1   
    39    18    19 2   
    40    18    20 1   
    41    19    41 1   
    42    20    21 1   
    43    20    42 1   
    44    20    43 1   
    45    21    44 1   
    46    22    45 1   
@<TRIPOS>SUBSTRUCTURE
     1 AC1         1 TEMP              0 ****  ****    0 ROOT
