@<TRIPOS>MOLECULE
AC1
   45    46     1     0     0
SMALL
abcg2


@<TRIPOS>ATOM
      1 C1          14.3870     6.1920    48.3360 c6         1 AC1       0.386300
      2 O2          13.2640     7.2540    50.1820 oh         1 AC1      -0.707000
      3 C2          14.5350     6.8220    49.7160 c6         1 AC1       0.161300
      4 C4A         21.6050     9.1530    48.8930 c6         1 AC1       0.185500
      5 C3          15.5420     7.9580    49.6760 c6         1 AC1       0.104300
      6 O3          15.6630     8.4380    51.0200 oh         1 AC1      -0.740000
      7 C4          16.8810     7.4760    49.1100 c6         1 AC1       0.131500
      8 N4A         17.8350     8.5730    48.9390 n7         1 AC1      -0.883400
      9 C5          16.6600     6.7580    47.7670 c6         1 AC1       0.180300
     10 O5          15.6470     5.7380    47.8900 os         1 AC1      -0.493000
     11 C6          17.9060     6.0620    47.2600 c3         1 AC1      -0.081100
     12 C1B         18.8570     8.7090    49.9880 c6         1 AC1       0.218700
     13 C2B         19.5230    10.0800    49.8820 c6         1 AC1       0.174300
     14 O2B         18.5130    11.0810    49.7900 oh         1 AC1      -0.740000
     15 C3B         20.4660    10.1370    48.6920 c6         1 AC1       0.137300
     16 O3B         20.9420    11.4810    48.5970 oh         1 AC1      -0.682000
     17 O4          22.3350     9.0870    47.6620 oh         1 AC1      -0.731000
     18 C5B         21.1040     7.7960    49.3380 c2         1 AC1      -0.134400
     19 C7B         19.8940     7.6220    49.8630 c2         1 AC1      -0.190200
     20 C6B         22.0460     6.6470    49.1380 c3         1 AC1       0.194800
     21 O6B         23.3600     7.0460    49.5640 oh         1 AC1      -0.678000
     22 O1          13.8150     7.1350    47.4600 oh         1 AC1      -0.728000
     23 H1          13.7660     5.2960    48.3930 h2         1 AC1       0.077700
     24 HO2         13.4220     7.7530    50.9950 ho         1 AC1       0.520000
     25 H2          14.9300     6.0410    50.3770 h1         1 AC1       0.054700
     26 HC4         22.2620     9.5570    49.6720 h1         1 AC1       0.063700
     27 H3          15.1510     8.7590    49.0390 h1         1 AC1       0.065700
     28 HO3         15.9780     9.3500    51.0010 ho         1 AC1       0.516000
     29 H4          17.2930     6.7460    49.8120 h1         1 AC1       0.066700
     30 HN4         17.3480     9.4580    48.8550 hn         1 AC1       0.440000
     31 H5          16.3260     7.5000    47.0350 h1         1 AC1       0.054700
     32 H61         17.7090     5.5890    46.2970 hc         1 AC1       0.046700
     33 H62         18.7140     6.7820    47.1410 hc         1 AC1       0.046700
     34 H63         18.2270     5.2950    47.9690 hc         1 AC1       0.046700
     35 HCB1        18.4030     8.6390    50.9860 h1         1 AC1       0.051700
     36 HCB2        20.1120    10.2400    50.7940 h1         1 AC1       0.052700
     37 HO2B        18.9420    11.8870    49.4710 ho         1 AC1       0.534000
     38 HCB3        19.9210     9.8700    47.7810 h1         1 AC1       0.075700
     39 HOB3        21.4390    11.5680    47.7740 ho         1 AC1       0.466000
     40 HO4         23.1740     8.6440    47.8530 ho         1 AC1       0.517000
     41 HC7         19.6020     6.6330    50.1980 ha         1 AC1       0.180000
     42 HC61        21.7020     5.7740    49.6990 h1         1 AC1       0.038700
     43 HC62        22.0740     6.3800    48.0760 h1         1 AC1       0.038700
     44 HO6B        23.9880     6.3730    49.2740 ho         1 AC1       0.447000
     45 HO1         13.5640     6.6800    46.6450 ho         1 AC1       0.512000
@<TRIPOS>BOND
     1     1     3 1   
     2     1    10 1   
     3     1    22 1   
     4     1    23 1   
     5     2     3 1   
     6     2    24 1   
     7     3     5 1   
     8     3    25 1   
     9     4    15 1   
    10     4    17 1   
    11     4    18 1   
    12     4    26 1   
    13     5     6 1   
    14     5     7 1   
    15     5    27 1   
    16     6    28 1   
    17     7     8 1   
    18     7     9 1   
    19     7    29 1   
    20     8    12 1   
    21     8    30 1   
    22     9    10 1   
    23     9    11 1   
    24     9    31 1   
    25    11    32 1   
    26    11    33 1   
    27    11    34 1   
    28    12    13 1   
    29    12    19 1   
    30    12    35 1   
    31    13    14 1   
    32    13    15 1   
    33    13    36 1   
    34    14    37 1   
    35    15    16 1   
    36    15    38 1   
    37    16    39 1   
    38    17    40 1   
    39    18    19 2   
    40    18    20 1   
    41    19    41 1   
    42    20    21 1   
    43    20    42 1   
    44    20    43 1   
    45    21    44 1   
    46    22    45 1   
@<TRIPOS>SUBSTRUCTURE
     1 AC1         1 TEMP              0 ****  ****    0 ROOT
