@<TRIPOS>MOLECULE
AC2
   27    28     1     0     0
SMALL
abcg2


@<TRIPOS>ATOM
      1 C3           0.8610     1.2370     4.2770 c3         1 AC2       0.164600
      2 O3          -0.4510     1.2560     4.7910 oh         1 AC2      -0.708000
      3 C2           1.0890    -0.0510     3.5310 c3         1 AC2       0.167600
      4 O1           0.2550    -0.0910     2.3930 os         1 AC2      -0.453000
      5 C1           0.4340    -1.2480     1.6360 c3         1 AC2       0.313600
      6 N9          -0.3480    -1.1270     0.4420 na         1 AC2      -0.181500
      7 C8          -1.6470    -1.5350     0.2660 cc         1 AC2       0.414400
      8 N7          -2.1260    -1.2130    -0.8940 nd         1 AC2      -0.595000
      9 C5          -1.1000    -0.5480    -1.5190 cd         1 AC2       0.090500
     10 C6          -1.0300     0.0410    -2.8150 c          1 AC2       0.521500
     11 O6          -1.8870     0.0890    -3.6810 o          1 AC2      -0.516000
     12 N1           0.2300     0.6140    -3.0260 ns         1 AC2      -0.457400
     13 C7           1.2730     0.6180    -2.1450 cd         1 AC2       0.730800
     14 N2           2.3940     1.2460    -2.5300 nv         1 AC2      -1.040200
     15 N3           1.2030     0.0740    -0.9550 nc         1 AC2      -0.703100
     16 C4           0.0110    -0.4810    -0.7010 cc         1 AC2       0.153400
     17 H3'1         1.6150     1.2900     5.0720 h1         1 AC2       0.029200
     18 H3'2         1.0480     2.0830     3.6030 h1         1 AC2       0.029200
     19 HO'3        -0.5660     2.0760     5.2800 ho         1 AC2       0.504000
     20 H2'1         0.8960    -0.9090     4.1910 h1         1 AC2       0.031700
     21 H2'2         2.1470    -0.1010     3.2390 h1         1 AC2       0.031700
     22 H1'1         0.1000    -2.1440     2.1710 h2         1 AC2       0.047200
     23 H1'2         1.4820    -1.3900     1.3530 h2         1 AC2       0.047200
     24 H8          -2.1720    -2.0740     1.0400 h5         1 AC2       0.062100
     25 HN1          0.3580     1.0680    -3.9220 hn         1 AC2       0.321500
     26 HN21         3.2160     1.1030    -1.9680 hn         1 AC2       0.497000
     27 HN22         2.5570     1.4560    -3.5010 hn         1 AC2       0.497000
@<TRIPOS>BOND
     1     1     2 1   
     2     1     3 1   
     3     1    17 1   
     4     1    18 1   
     5     2    19 1   
     6     3     4 1   
     7     3    20 1   
     8     3    21 1   
     9     4     5 1   
    10     5     6 1   
    11     5    22 1   
    12     5    23 1   
    13     6     7 1   
    14     6    16 1   
    15     7     8 2   
    16     7    24 1   
    17     8     9 1   
    18     9    10 1   
    19     9    16 2   
    20    10    11 2   
    21    10    12 1   
    22    12    13 1   
    23    12    25 1   
    24    13    14 1   
    25    13    15 2   
    26    14    26 1   
    27    14    27 1   
    28    15    16 1   
@<TRIPOS>SUBSTRUCTURE
     1 AC2         1 TEMP              0 ****  ****    0 ROOT
