@<TRIPOS>MOLECULE
AC2
   27    28     1     0     0
SMALL
No Charge or Current Charge


@<TRIPOS>ATOM
      1 C3           0.7540     1.1590     4.5940 c3         1 AC2       0.164600
      2 O3          -0.5790     1.0290     5.1280 oh         1 AC2      -0.708000
      3 C2           1.1300    -0.0480     3.6930 c3         1 AC2       0.167600
      4 O1           0.3190    -0.0210     2.5020 os         1 AC2      -0.453000
      5 C1           0.5650    -1.1090     1.5980 c3         1 AC2       0.313600
      6 N9          -0.3050    -0.9190     0.4390 na         1 AC2      -0.181500
      7 C8          -1.6140    -1.3420     0.3340 cc         1 AC2       0.414400
      8 N7          -2.1190    -1.0750    -0.8690 nd         1 AC2      -0.595000
      9 C5          -1.0810    -0.4710    -1.5720 cd         1 AC2       0.090500
     10 C6          -1.0170     0.0480    -2.9690 c          1 AC2       0.521500
     11 O6          -1.9340     0.0370    -3.7790 o          1 AC2      -0.516000
     12 N1           0.2130     0.5580    -3.2730 ns         1 AC2      -0.457400
     13 C7           1.2420     0.5840    -2.4030 cd         1 AC2       0.730800
     14 N2           2.3810     1.0960    -2.8300 nv         1 AC2      -1.040200
     15 N3           1.2500     0.1480    -1.1670 nc         1 AC2      -0.703100
     16 C4           0.0360    -0.3820    -0.7760 cc         1 AC2       0.153400
     17 H3'1         1.4810     1.2190     5.4140 h1         1 AC2       0.029200
     18 H3'2         0.8450     2.0830     4.0060 h1         1 AC2       0.029200
     19 HO'3        -0.7680     1.8550     5.6320 ho         1 AC2       0.504000
     20 H2'1         0.9790    -0.9810     4.2510 h1         1 AC2       0.031700
     21 H2'2         2.1940     0.0240     3.4310 h1         1 AC2       0.031700
     22 H1'1         0.3280    -2.0760     2.0570 h2         1 AC2       0.047200
     23 H1'2         1.6060    -1.1190     1.2550 h2         1 AC2       0.047200
     24 H8          -2.1340    -1.8240     1.1540 h5         1 AC2       0.062100
     25 HN1          0.3240     0.9450    -4.1960 hn         1 AC2       0.321500
     26 HN21         3.1590     0.9130    -2.2080 hn         1 AC2       0.497000
     27 HN22         2.5880     1.0090    -3.8170 hn         1 AC2       0.497000
@<TRIPOS>BOND
     1     1     2 1   
     2     1     3 1   
     3     1    17 1   
     4     1    18 1   
     5     2    19 1   
     6     3     4 1   
     7     3    20 1   
     8     3    21 1   
     9     4     5 1   
    10     5     6 1   
    11     5    22 1   
    12     5    23 1   
    13     6     7 1   
    14     6    16 1   
    15     7     8 2   
    16     7    24 1   
    17     8     9 1   
    18     9    10 1   
    19     9    16 2   
    20    10    11 2   
    21    10    12 1   
    22    12    13 1   
    23    12    25 1   
    24    13    14 1   
    25    13    15 2   
    26    14    26 1   
    27    14    27 1   
    28    15    16 1   
@<TRIPOS>SUBSTRUCTURE
     1 AC2         1 TEMP              0 ****  ****    0 ROOT
