@<TRIPOS>MOLECULE
AC5
   19    19     1     0     0
SMALL
No Charge or Current Charge


@<TRIPOS>ATOM
      1 N            1.6530    -4.0750     0.5830 n8         1 AC5      -0.990200
      2 O            1.9600    -7.2170     1.3570 o          1 AC5      -0.729500
      3 CA           1.8160    -4.8230     1.8770 c5         1 AC5       0.040200
      4 C            1.2760    -6.3420     1.8760 c          1 AC5       0.731000
      5 CB1          3.3030    -4.8220     2.3560 c5         1 AC5      -0.078400
      6 CB2          1.2050    -4.0360     3.0820 c5         1 AC5      -0.078400
      7 OXT          0.1890    -6.6090     2.3790 o          1 AC5      -0.729500
      8 CG1          3.5570    -3.3430     2.7790 c5         1 AC5      -0.082400
      9 CG2          2.1640    -2.8200     3.2540 c5         1 AC5      -0.082400
     10 H            2.1340    -3.1740     0.6720 hn         1 AC5       0.379000
     11 HN2          2.1800    -4.5630    -0.1510 hn         1 AC5       0.379000
     12 HB11         3.4430    -5.4960     3.2110 hc         1 AC5       0.045450
     13 HB12         4.0010    -5.1550     1.5790 hc         1 AC5       0.045450
     14 HB21         0.1700    -3.7240     2.9030 hc         1 AC5       0.045450
     15 HB22         1.1970    -4.6460     3.9940 hc         1 AC5       0.045450
     16 HG11         4.3120    -3.2760     3.5700 hc         1 AC5       0.014700
     17 HG12         3.9290    -2.7470     1.9370 hc         1 AC5       0.014700
     18 HG21         1.8400    -1.9690     2.6440 hc         1 AC5       0.014700
     19 HG22         2.1890    -2.4720     4.2930 hc         1 AC5       0.014700
@<TRIPOS>BOND
     1     1     3 1   
     2     1    10 1   
     3     1    11 1   
     4     2     4 1   
     5     3     4 1   
     6     3     5 1   
     7     3     6 1   
     8     4     7 1   
     9     5     8 1   
    10     5    12 1   
    11     5    13 1   
    12     6     9 1   
    13     6    14 1   
    14     6    15 1   
    15     8     9 1   
    16     8    16 1   
    17     8    17 1   
    18     9    18 1   
    19     9    19 1   
@<TRIPOS>SUBSTRUCTURE
     1 AC5         1 TEMP              0 ****  ****    0 ROOT
