@<TRIPOS>MOLECULE
AC5
   19    19     1     0     0
SMALL
abcg2


@<TRIPOS>ATOM
      1 N            1.6980    -4.1650     0.6220 n8         1 AC5      -0.990200
      2 O            1.2750    -6.7910     0.6910 o          1 AC5      -0.729500
      3 CA           1.8500    -4.8230     1.9180 c5         1 AC5       0.040200
      4 C            1.3270    -6.2800     1.8290 c          1 AC5       0.731000
      5 CB1          3.3090    -4.8050     2.4240 c5         1 AC5      -0.078400
      6 CB2          1.1710    -3.9740     2.9960 c5         1 AC5      -0.078400
      7 OXT          1.0410    -6.8420     2.9050 o          1 AC5      -0.729500
      8 CG1          3.5390    -3.3600     2.8990 c5         1 AC5      -0.082400
      9 CG2          2.1320    -2.8010     3.2250 c5         1 AC5      -0.082400
     10 H            2.3040    -3.3550     0.5650 hn         1 AC5       0.379000
     11 HN2          2.0120    -4.8090    -0.0910 hn         1 AC5       0.379000
     12 HB11         3.4130    -5.4950     3.2650 hc         1 AC5       0.045450
     13 HB12         4.0170    -5.1210     1.6540 hc         1 AC5       0.045450
     14 HB21         0.1690    -3.6540     2.7020 hc         1 AC5       0.045450
     15 HB22         1.0770    -4.5660     3.9060 hc         1 AC5       0.045450
     16 HG11         4.2060    -3.3250     3.7620 hc         1 AC5       0.014700
     17 HG12         4.0190    -2.7630     2.1210 hc         1 AC5       0.014700
     18 HG21         1.8900    -1.9680     2.5610 hc         1 AC5       0.014700
     19 HG22         2.0670    -2.4120     4.2420 hc         1 AC5       0.014700
@<TRIPOS>BOND
     1     1     3 1   
     2     1    10 1   
     3     1    11 1   
     4     2     4 1   
     5     3     4 1   
     6     3     5 1   
     7     3     6 1   
     8     4     7 1   
     9     5     8 1   
    10     5    12 1   
    11     5    13 1   
    12     6     9 1   
    13     6    14 1   
    14     6    15 1   
    15     8     9 1   
    16     8    16 1   
    17     8    17 1   
    18     9    18 1   
    19     9    19 1   
@<TRIPOS>SUBSTRUCTURE
     1 AC5         1 TEMP              0 ****  ****    0 ROOT
