@<TRIPOS>MOLECULE
AC6
   18    18     1     0     0
SMALL
abcg2


@<TRIPOS>ATOM
      1 C1          -2.1230     0.1240     0.1250 ca         1 AC6       0.169100
      2 C2          -1.4800    -1.1150     0.1090 ca         1 AC6      -0.194500
      3 C3          -0.1010    -1.1740     0.0690 ca         1 AC6      -0.021500
      4 C4           0.6730    -0.0110     0.0430 ca         1 AC6      -0.220600
      5 C5           0.0130     1.2200     0.0600 ca         1 AC6      -0.021500
      6 C6          -1.3660     1.2950     0.1020 ca         1 AC6      -0.194500
      7 O1          -3.4570     0.2440     0.1620 oh         1 AC6      -0.528100
      8 O2           2.6950    -1.2050    -0.0070 o          1 AC6      -0.532100
      9 C7           2.1490    -0.1180    -0.0050 c          1 AC6       0.589700
     10 C8           2.9530     1.1540    -0.0540 c3         1 AC6      -0.195100
     11 H2          -2.0600    -2.0310     0.1280 ha         1 AC6       0.125000
     12 H3           0.3820    -2.1420     0.0560 ha         1 AC6       0.125000
     13 H5           0.5760     2.1440     0.0410 ha         1 AC6       0.125000
     14 H6          -1.8620     2.2570     0.1160 ha         1 AC6       0.125000
     15 HO1         -3.8780    -0.6240     0.1660 ho         1 AC6       0.470000
     16 H81          4.0170     0.9280    -0.0820 hc         1 AC6       0.060367
     17 H82          2.6970     1.7420    -0.9370 hc         1 AC6       0.060367
     18 H83          2.7500     1.7820     0.8150 hc         1 AC6       0.060367
@<TRIPOS>BOND
     1     1     2 ar  
     2     1     6 ar  
     3     1     7 1   
     4     2     3 ar  
     5     2    11 1   
     6     3     4 ar  
     7     3    12 1   
     8     4     5 ar  
     9     4     9 1   
    10     5     6 ar  
    11     5    13 1   
    12     6    14 1   
    13     7    15 1   
    14     8     9 2   
    15     9    10 1   
    16    10    16 1   
    17    10    17 1   
    18    10    18 1   
@<TRIPOS>SUBSTRUCTURE
     1 AC6         1 TEMP              0 ****  ****    0 ROOT
