@<TRIPOS>MOLECULE
AC6
   18    18     1     0     0
SMALL
No Charge or Current Charge


@<TRIPOS>ATOM
      1 C1          -2.1560     0.1380     0.1250 ca         1 AC6       0.169100
      2 C2          -1.5200    -1.1110     0.1120 ca         1 AC6      -0.194500
      3 C3          -0.1170    -1.1870     0.0680 ca         1 AC6      -0.021500
      4 C4           0.6670    -0.0100     0.0350 ca         1 AC6      -0.220600
      5 C5           0.0110     1.2440     0.0480 ca         1 AC6      -0.021500
      6 C6          -1.3920     1.3100     0.0930 ca         1 AC6      -0.194500
      7 O1          -3.5150     0.2190     0.1680 oh         1 AC6      -0.528100
      8 O2           2.7290    -1.2140    -0.0240 o          1 AC6      -0.532100
      9 C7           2.1790    -0.1190    -0.0130 c          1 AC6       0.589700
     10 C8           3.0320     1.1510    -0.0480 c3         1 AC6      -0.195100
     11 H2          -2.1040    -2.0280     0.1370 ha         1 AC6       0.125000
     12 H3           0.3560    -2.1670     0.0580 ha         1 AC6       0.125000
     13 H5           0.5710     2.1760     0.0250 ha         1 AC6       0.125000
     14 H6          -1.8880     2.2780     0.1030 ha         1 AC6       0.125000
     15 HO1         -3.8780    -0.6920     0.1860 ho         1 AC6       0.470000
     16 H81          4.1060     0.9360    -0.0810 hc         1 AC6       0.060367
     17 H82          2.7210     1.7680    -0.8990 hc         1 AC6       0.060367
     18 H83          2.7760     1.7780     0.8130 hc         1 AC6       0.060367
@<TRIPOS>BOND
     1     1     2 ar  
     2     1     6 ar  
     3     1     7 1   
     4     2     3 ar  
     5     2    11 1   
     6     3     4 ar  
     7     3    12 1   
     8     4     5 ar  
     9     4     9 1   
    10     5     6 ar  
    11     5    13 1   
    12     6    14 1   
    13     7    15 1   
    14     8     9 2   
    15     9    10 1   
    16    10    16 1   
    17    10    17 1   
    18    10    18 1   
@<TRIPOS>SUBSTRUCTURE
     1 AC6         1 TEMP              0 ****  ****    0 ROOT
