@<TRIPOS>MOLECULE
AC7
   63    64     1     0     0
SMALL
abcg2


@<TRIPOS>ATOM
      1 C1          50.0220   -28.8230    38.2530 ca         1 AC7      -0.013000
      2 O1          50.8920   -30.2390    35.0040 os         1 AC7      -0.353100
      3 C2          50.7640   -29.1010    37.1080 ca         1 AC7      -0.176100
      4 C3          50.2020   -29.8860    36.1020 ca         1 AC7       0.211600
      5 C4          48.9070   -30.3870    36.2850 ca         1 AC7      -0.060500
      6 C5          48.1660   -30.0740    37.4200 ca         1 AC7      -0.025500
      7 C6          48.7120   -29.2640    38.4070 ca         1 AC7      -0.086800
      8 C7          52.1430   -28.5530    36.9650 c          1 AC7       0.617200
      9 C8          47.9090   -28.8830    39.5930 ce         1 AC7      -0.011400
     10 C9          47.6650   -27.6020    39.9020 c2         1 AC7      -0.180200
     11 C10         46.4300   -32.1180    42.0220 ca         1 AC7       0.211600
     12 C11         45.6890   -30.9420    41.8490 ca         1 AC7      -0.060500
     13 C12         46.1550   -29.8920    41.0680 ca         1 AC7      -0.025500
     14 C13         47.3800   -29.9900    40.4180 ca         1 AC7      -0.086800
     15 C14         48.1050   -31.1680    40.5770 ca         1 AC7      -0.013000
     16 C15         47.6720   -32.2150    41.3850 ca         1 AC7      -0.176100
     17 C16         48.6170   -33.3570    41.5480 c          1 AC7       0.617200
     18 C17         48.0810   -26.3980    39.1240 c3         1 AC7      -0.050200
     19 C18         49.0140   -25.4840    39.9240 c3         1 AC7      -0.066400
     20 C19         49.5870   -24.3590    39.0750 c3         1 AC7      -0.138400
     21 C20         50.6290   -24.8450    38.0980 c          1 AC7       0.589100
     22 C21         51.6690   -24.4470    36.0270 c3         1 AC7       0.147900
     23 C22         50.6410   -29.4580    33.8310 c3         1 AC7       0.161400
     24 C23         45.6410   -34.3630    42.2620 c3         1 AC7       0.161400
     25 C24         54.0600   -27.9160    38.1600 c3         1 AC7       0.153400
     26 C25         49.3750   -35.0490    42.9910 c3         1 AC7       0.153400
     27 O35         52.6170   -28.1660    35.9280 o          1 AC7      -0.483500
     28 O36         49.4140   -33.6750    40.7010 o          1 AC7      -0.483500
     29 O37         51.3560   -25.7880    38.2900 o          1 AC7      -0.501000
     30 N69         47.8950   -31.9520    34.5050 n1         1 AC7      -0.446000
     31 N74         43.3710   -30.7560    42.9590 n1         1 AC7      -0.446000
     32 C77         48.3540   -31.2510    35.2950 cg         1 AC7       0.332500
     33 C82         44.4090   -30.8510    42.4700 cg         1 AC7       0.332500
     34 H1          50.4670   -28.2270    39.0370 ha         1 AC7       0.147000
     35 H5          47.1610   -30.4630    37.5240 ha         1 AC7       0.131500
     36 H9          47.1050   -27.3950    40.8100 ha         1 AC7       0.175000
     37 H12         45.5380   -29.0110    40.9490 ha         1 AC7       0.131500
     38 H14         49.0650   -31.2670    40.0870 ha         1 AC7       0.147000
     39 H17         47.1810   -25.8310    38.8610 hc         1 AC7       0.054700
     40 H17A        48.5470   -26.6870    38.1810 hc         1 AC7       0.054700
     41 H18         49.8300   -26.0650    40.3580 hc         1 AC7       0.057200
     42 H18A        48.4650   -25.0540    40.7630 hc         1 AC7       0.057200
     43 H19         50.0810   -23.6220    39.7180 hc         1 AC7       0.074700
     44 H19A        48.7980   -23.8210    38.5460 hc         1 AC7       0.074700
     45 H21         51.5190   -25.4610    35.6570 h1         1 AC7       0.052367
     46 H21A        51.5430   -23.7410    35.2120 h1         1 AC7       0.052367
     47 H21B        52.6780   -24.3620    36.4290 h1         1 AC7       0.052367
     48 H22         49.5960   -29.5270    33.5190 h1         1 AC7       0.046367
     49 H22A        50.9020   -28.4130    33.9920 h1         1 AC7       0.046367
     50 H22B        51.2690   -29.8710    33.0460 h1         1 AC7       0.046367
     51 H23         46.0900   -35.1080    42.9150 h1         1 AC7       0.046367
     52 H23A        44.5630   -34.5190    42.2250 h1         1 AC7       0.046367
     53 H23B        46.0400   -34.4790    41.2540 h1         1 AC7       0.046367
     54 H24         54.7750   -28.4370    37.5230 h1         1 AC7       0.050533
     55 H24A        53.9920   -26.8730    37.8550 h1         1 AC7       0.050533
     56 H24B        54.3880   -27.9740    39.1930 h1         1 AC7       0.050533
     57 H25         49.2000   -35.8570    42.2820 h1         1 AC7       0.050533
     58 H25A        50.4240   -34.7560    42.9570 h1         1 AC7       0.050533
     59 H25B        49.1250   -35.3840    43.9930 h1         1 AC7       0.050533
     60 O2          45.8840   -33.0590    42.7970 os         1 AC7      -0.353100
     61 O3          50.6870   -24.0970    37.0040 os         1 AC7      -0.442100
     62 O5          52.7770   -28.5430    38.1220 os         1 AC7      -0.426100
     63 O7          48.5180   -33.9350    42.7280 os         1 AC7      -0.426100
@<TRIPOS>BOND
     1     1     3 ar  
     2     1     7 ar  
     3     1    34 1   
     4     2     4 1   
     5     2    23 1   
     6     3     4 ar  
     7     3     8 1   
     8     4     5 ar  
     9     5     6 ar  
    10     5    32 1   
    11     6     7 ar  
    12     6    35 1   
    13     7     9 1   
    14     8    27 2   
    15     8    62 1   
    16     9    10 2   
    17     9    14 1   
    18    10    18 1   
    19    10    36 1   
    20    11    12 ar  
    21    11    16 ar  
    22    11    60 1   
    23    12    13 ar  
    24    12    33 1   
    25    13    14 ar  
    26    13    37 1   
    27    14    15 ar  
    28    15    16 ar  
    29    15    38 1   
    30    16    17 1   
    31    17    28 2   
    32    17    63 1   
    33    18    19 1   
    34    18    39 1   
    35    18    40 1   
    36    19    20 1   
    37    19    41 1   
    38    19    42 1   
    39    20    21 1   
    40    20    43 1   
    41    20    44 1   
    42    21    29 2   
    43    21    61 1   
    44    22    45 1   
    45    22    46 1   
    46    22    47 1   
    47    22    61 1   
    48    23    48 1   
    49    23    49 1   
    50    23    50 1   
    51    24    51 1   
    52    24    52 1   
    53    24    53 1   
    54    24    60 1   
    55    25    54 1   
    56    25    55 1   
    57    25    56 1   
    58    25    62 1   
    59    26    57 1   
    60    26    58 1   
    61    26    59 1   
    62    26    63 1   
    63    30    32 3   
    64    31    33 3   
@<TRIPOS>SUBSTRUCTURE
     1 AC7         1 TEMP              0 ****  ****    0 ROOT
