@<TRIPOS>MOLECULE
AC7
   63    64     1     0     0
SMALL
No Charge or Current Charge


@<TRIPOS>ATOM
      1 C1          50.1000   -28.6960    38.3870 ca         1 AC7      -0.013000
      2 O1          51.0000   -30.0570    35.0720 os         1 AC7      -0.353100
      3 C2          50.8660   -29.0060    37.2410 ca         1 AC7      -0.176100
      4 C3          50.2580   -29.7140    36.1800 ca         1 AC7       0.211600
      5 C4          48.9100   -30.1310    36.2850 ca         1 AC7      -0.060500
      6 C5          48.1640   -29.8070    37.4320 ca         1 AC7      -0.025500
      7 C6          48.7510   -29.0790    38.4790 ca         1 AC7      -0.086800
      8 C7          52.3090   -28.5800    37.1810 c          1 AC7       0.617200
      9 C8          47.9470   -28.7390    39.6870 ce         1 AC7      -0.011400
     10 C9          47.6870   -27.4560    40.0390 c2         1 AC7      -0.180200
     11 C10         46.4550   -32.1170    41.9390 ca         1 AC7       0.211600
     12 C11         45.6730   -30.9500    41.8110 ca         1 AC7      -0.060500
     13 C12         46.1600   -29.8490    41.0830 ca         1 AC7      -0.025500
     14 C13         47.4300   -29.8980    40.4770 ca         1 AC7      -0.086800
     15 C14         48.2110   -31.0620    40.6180 ca         1 AC7      -0.013000
     16 C15         47.7440   -32.1690    41.3580 ca         1 AC7      -0.176100
     17 C16         48.6530   -33.3570    41.5070 c          1 AC7       0.617200
     18 C17         48.1130   -26.2020    39.2970 c3         1 AC7      -0.050200
     19 C18         49.2480   -25.4450    40.0250 c3         1 AC7      -0.066400
     20 C19         49.8920   -24.3140    39.1850 c3         1 AC7      -0.138400
     21 C20         50.6750   -24.8650    37.9890 c          1 AC7       0.589100
     22 C21         50.5570   -25.3070    35.6240 c3         1 AC7       0.147900
     23 C22         50.8500   -29.3040    33.8540 c3         1 AC7       0.161400
     24 C23         45.5240   -34.3660    41.8760 c3         1 AC7       0.161400
     25 C24         54.2570   -28.0620    38.5050 c3         1 AC7       0.153400
     26 C25         49.4920   -35.0470    43.0090 c3         1 AC7       0.153400
     27 O35         52.8700   -28.2220    36.1530 o          1 AC7      -0.483500
     28 O36         49.4120   -33.7150    40.6160 o          1 AC7      -0.483500
     29 O37         51.8050   -25.3240    38.0750 o          1 AC7      -0.501000
     30 N69         47.7650   -31.5360    34.4160 n1         1 AC7      -0.446000
     31 N74         43.2980   -30.8020    42.8690 n1         1 AC7      -0.446000
     32 C77         48.2860   -30.9070    35.2510 cg         1 AC7       0.332500
     33 C82         44.3640   -30.8760    42.3980 cg         1 AC7       0.332500
     34 H1          50.5510   -28.1530    39.2140 ha         1 AC7       0.147000
     35 H5          47.1250   -30.1200    37.5160 ha         1 AC7       0.131500
     36 H9          47.1070   -27.2440    40.9370 ha         1 AC7       0.175000
     37 H12         45.5380   -28.9630    40.9700 ha         1 AC7       0.131500
     38 H14         49.2020   -31.1000    40.1690 ha         1 AC7       0.147000
     39 H17         47.2540   -25.5290    39.1880 hc         1 AC7       0.054700
     40 H17A        48.4230   -26.4510    38.2760 hc         1 AC7       0.054700
     41 H18         50.0290   -26.1520    40.3280 hc         1 AC7       0.057200
     42 H18A        48.8450   -25.0170    40.9520 hc         1 AC7       0.057200
     43 H19         50.5840   -23.7570    39.8270 hc         1 AC7       0.074700
     44 H19A        49.0920   -23.6550    38.8290 hc         1 AC7       0.074700
     45 H21         50.7600   -26.3810    35.7240 h1         1 AC7       0.052367
     46 H21A        49.8840   -25.1680    34.7680 h1         1 AC7       0.052367
     47 H21B        51.5020   -24.7940    35.4010 h1         1 AC7       0.052367
     48 H22         49.8220   -29.3620    33.4750 h1         1 AC7       0.046367
     49 H22A        51.0960   -28.2470    34.0190 h1         1 AC7       0.046367
     50 H22B        51.5220   -29.6940    33.0800 h1         1 AC7       0.046367
     51 H23         45.1220   -35.1250    42.5580 h1         1 AC7       0.046367
     52 H23A        44.7430   -34.1110    41.1490 h1         1 AC7       0.046367
     53 H23B        46.3680   -34.8090    41.3340 h1         1 AC7       0.046367
     54 H24         54.9290   -28.7010    37.9170 h1         1 AC7       0.050533
     55 H24A        54.3410   -27.0330    38.1330 h1         1 AC7       0.050533
     56 H24B        54.6000   -28.0760    39.5470 h1         1 AC7       0.050533
     57 H25         49.2580   -35.8800    42.3330 h1         1 AC7       0.050533
     58 H25A        50.5460   -34.7720    42.8700 h1         1 AC7       0.050533
     59 H25B        49.3660   -35.4000    44.0400 h1         1 AC7       0.050533
     60 O2          45.9290   -33.1980    42.6120 os         1 AC7      -0.353100
     61 O3          49.9580   -24.7850    36.8230 os         1 AC7      -0.442100
     62 O5          52.8990   -28.5290    38.4190 os         1 AC7      -0.426100
     63 O7          48.6290   -33.9240    42.7550 os         1 AC7      -0.426100
@<TRIPOS>BOND
     1     1     3 ar  
     2     1     7 ar  
     3     1    34 1   
     4     2     4 1   
     5     2    23 1   
     6     3     4 ar  
     7     3     8 1   
     8     4     5 ar  
     9     5     6 ar  
    10     5    32 1   
    11     6     7 ar  
    12     6    35 1   
    13     7     9 1   
    14     8    27 2   
    15     8    62 1   
    16     9    10 2   
    17     9    14 1   
    18    10    18 1   
    19    10    36 1   
    20    11    12 ar  
    21    11    16 ar  
    22    11    60 1   
    23    12    13 ar  
    24    12    33 1   
    25    13    14 ar  
    26    13    37 1   
    27    14    15 ar  
    28    15    16 ar  
    29    15    38 1   
    30    16    17 1   
    31    17    28 2   
    32    17    63 1   
    33    18    19 1   
    34    18    39 1   
    35    18    40 1   
    36    19    20 1   
    37    19    41 1   
    38    19    42 1   
    39    20    21 1   
    40    20    43 1   
    41    20    44 1   
    42    21    29 2   
    43    21    61 1   
    44    22    45 1   
    45    22    46 1   
    46    22    47 1   
    47    22    61 1   
    48    23    48 1   
    49    23    49 1   
    50    23    50 1   
    51    24    51 1   
    52    24    52 1   
    53    24    53 1   
    54    24    60 1   
    55    25    54 1   
    56    25    55 1   
    57    25    56 1   
    58    25    62 1   
    59    26    57 1   
    60    26    58 1   
    61    26    59 1   
    62    26    63 1   
    63    30    32 3   
    64    31    33 3   
@<TRIPOS>SUBSTRUCTURE
     1 AC7         1 TEMP              0 ****  ****    0 ROOT
