@<TRIPOS>MOLECULE
ACA
   21    20     1     0     0
SMALL
No Charge or Current Charge


@<TRIPOS>ATOM
      1 C1          -0.0650    -0.0240    -2.8770 c          1 ACA       0.716000
      2 O1          -0.5980    -1.0230    -3.3350 o          1 ACA      -0.744000
      3 O2          -0.1880     1.0910    -3.3620 o          1 ACA      -0.744000
      4 C2           0.7570    -0.1670    -1.5820 c3         1 ACA      -0.203400
      5 C3          -0.1550     0.0260    -0.3460 c3         1 ACA      -0.054400
      6 C4           0.6030    -0.1030     0.9950 c3         1 ACA      -0.080400
      7 C5          -0.3080     0.0890     2.2280 c3         1 ACA      -0.078400
      8 C6           0.4560    -0.0420     3.5620 c3         1 ACA       0.143800
      9 N6          -0.4360     0.1460     4.7200 n8         1 ACA      -0.996200
     10 H21          1.5170     0.6230    -1.5210 hc         1 ACA       0.014200
     11 H22          1.1670    -1.1810    -1.4980 hc         1 ACA       0.014200
     12 H31         -0.9630    -0.7150    -0.3750 hc         1 ACA       0.039200
     13 H32         -0.6280     1.0150    -0.3970 hc         1 ACA       0.039200
     14 H41          1.4100     0.6390     1.0260 hc         1 ACA       0.022200
     15 H42          1.0750    -1.0930     1.0480 hc         1 ACA       0.022200
     16 H51         -1.1140    -0.6540     2.1990 hc         1 ACA       0.042200
     17 H52         -0.7790     1.0790     2.1750 hc         1 ACA       0.042200
     18 H61          1.2540     0.7130     3.6080 h1         1 ACA       0.021200
     19 H62          0.9140    -1.0380     3.6310 h1         1 ACA       0.021200
     20 HN61         0.1240     0.1180     5.5810 hn         1 ACA       0.381000
     21 HN62        -0.8050     1.1050     4.7030 hn         1 ACA       0.381000
@<TRIPOS>BOND
     1     1     2 1   
     2     1     3 1   
     3     1     4 1   
     4     4     5 1   
     5     4    10 1   
     6     4    11 1   
     7     5     6 1   
     8     5    12 1   
     9     5    13 1   
    10     6     7 1   
    11     6    14 1   
    12     6    15 1   
    13     7     8 1   
    14     7    16 1   
    15     7    17 1   
    16     8     9 1   
    17     8    18 1   
    18     8    19 1   
    19     9    20 1   
    20     9    21 1   
@<TRIPOS>SUBSTRUCTURE
     1 ACA         1 TEMP              0 ****  ****    0 ROOT
