@<TRIPOS>MOLECULE
ACA
   21    20     1     0     0
SMALL
bcc


@<TRIPOS>ATOM
      1 C1          -0.0310    -0.0160    -2.8910 c          1 ACA       0.926600
      2 O1          -1.2600    -0.2290    -2.9020 o          1 ACA      -0.849300
      3 O2           0.6910     0.1770    -3.8930 o          1 ACA      -0.849300
      4 C2           0.6850    -0.0030    -1.5300 c3         1 ACA      -0.203400
      5 C3          -0.2110    -0.0240    -0.3020 c3         1 ACA      -0.054400
      6 C4           0.5760    -0.0070     1.0030 c3         1 ACA      -0.080400
      7 C5          -0.3120    -0.0070     2.2400 c3         1 ACA      -0.078400
      8 C6           0.4810    -0.0050     3.5380 c3         1 ACA       0.143800
      9 N6          -0.4050     0.0030     4.6950 n8         1 ACA      -0.885800
     10 H21          1.3430     0.8730    -1.4920 hc         1 ACA       0.014200
     11 H22          1.3640    -0.8650    -1.4990 hc         1 ACA       0.014200
     12 H31         -0.8510    -0.9110    -0.3260 hc         1 ACA       0.039200
     13 H32         -0.8890     0.8350    -0.3240 hc         1 ACA       0.039200
     14 H41          1.2280     0.8740     1.0240 hc         1 ACA       0.022200
     15 H42          1.2440    -0.8750     1.0360 hc         1 ACA       0.022200
     16 H51         -0.9720    -0.8810     2.2240 hc         1 ACA       0.042200
     17 H52         -0.9670     0.8730     2.2150 hc         1 ACA       0.042200
     18 H61          1.1860     0.8390     3.5210 h1         1 ACA       0.021200
     19 H62          1.0920    -0.9110     3.5810 h1         1 ACA       0.021200
     20 HN61         0.1470    -0.0230     5.5430 hn         1 ACA       0.325800
     21 HN62        -0.9000     0.8870     4.7240 hn         1 ACA       0.325800
@<TRIPOS>BOND
     1     1     2 1   
     2     1     3 1   
     3     1     4 1   
     4     4     5 1   
     5     4    10 1   
     6     4    11 1   
     7     5     6 1   
     8     5    12 1   
     9     5    13 1   
    10     6     7 1   
    11     6    14 1   
    12     6    15 1   
    13     7     8 1   
    14     7    16 1   
    15     7    17 1   
    16     8     9 1   
    17     8    18 1   
    18     8    19 1   
    19     9    20 1   
    20     9    21 1   
@<TRIPOS>SUBSTRUCTURE
     1 ACA         1 TEMP              0 ****  ****    0 ROOT
