@<TRIPOS>MOLECULE
ACC
   46    45     1     0     0
SMALL
No Charge or Current Charge


@<TRIPOS>ATOM
      1 C1           1.7470    -0.0230     0.2260 c          1 ACC       0.600100
      2 N2           2.8600     0.1100     1.0340 ns         1 ACC      -0.441900
      3 C3           0.9390    -1.3320     0.4390 c3         1 ACC       0.032700
      4 C4           3.8680     1.1990     0.9330 c3         1 ACC      -0.044300
      5 C5           5.1960     0.7020     0.3200 c3         1 ACC       0.096600
      6 O6           1.4220     0.8360    -0.5880 o          1 ACC      -0.626100
      7 N7          -0.4100    -1.2230    -0.1730 ns         1 ACC      -0.481900
      8 C8          -1.5870    -1.6080     0.4270 c          1 ACC       0.611100
      9 C9          -2.8390    -1.4480    -0.4430 c3         1 ACC      -0.159400
     10 C10         -3.7050    -0.2510     0.0150 c3         1 ACC      -0.073400
     11 C13         -4.9780    -0.0670    -0.8430 c3         1 ACC      -0.096400
     12 C16         -5.8180     1.1720    -0.4560 c3         1 ACC      -0.056700
     13 N19         -6.3400     1.0520     0.9820 nz         1 ACC      -0.984000
     14 C20         -6.9540     1.4290    -1.5110 c          1 ACC       0.716000
     15 O21         -6.7840     2.3290    -2.3200 o          1 ACC      -0.660000
     16 O22         -8.0070     0.8230    -1.3720 o          1 ACC      -0.660000
     17 C23          4.1210     1.8370     2.3250 c          1 ACC       0.720000
     18 O25          3.8720     3.0260     2.4680 o          1 ACC      -0.708500
     19 O26          4.5010     1.1130     3.2350 o          1 ACC      -0.708500
     20 O27         -1.6310    -2.0570     1.5640 o          1 ACC      -0.615100
     21 C35          1.7230    -2.5410    -0.1320 c3         1 ACC       0.066600
     22 S37          0.8460    -4.1750    -0.0090 sh         1 ACC      -0.457800
     23 S41          4.9510    -0.0130    -1.3770 ss         1 ACC      -0.503000
     24 C42          6.6880    -0.5170    -1.7620 c3         1 ACC       0.045900
     25 H2           3.0270    -0.6250     1.7110 hn         1 ACC       0.305500
     26 H3           0.8320    -1.4650     1.5230 h1         1 ACC       0.102700
     27 H4           3.4730     1.9940     0.2880 h1         1 ACC       0.081700
     28 H52          5.9040     1.5390     0.2560 h1         1 ACC       0.068200
     29 H51          5.6370    -0.0660     0.9700 h1         1 ACC       0.068200
     30 H7          -0.4820    -0.8260    -1.1030 hn         1 ACC       0.331500
     31 H92         -3.4380    -2.3630    -0.3600 hc         1 ACC       0.063700
     32 H91         -2.5490    -1.2900    -1.4890 hc         1 ACC       0.063700
     33 H102        -3.1040     0.6660    -0.0300 hc         1 ACC       0.044200
     34 H101        -3.9870    -0.3990     1.0650 hc         1 ACC       0.044200
     35 H132        -5.6020    -0.9670    -0.7760 hc         1 ACC       0.077700
     36 H131        -4.6810     0.0300    -1.8950 hc         1 ACC       0.077700
     37 H16         -5.1700     2.0520    -0.5060 hx         1 ACC       0.086700
     38 H193        -7.0030     0.2690     1.0960 hn         1 ACC       0.495333
     39 H192        -6.8650     1.8870     1.2890 hn         1 ACC       0.495333
     40 H191        -5.6020     0.9120     1.6880 hn         1 ACC       0.495333
     41 H352         2.6860    -2.6300     0.3890 h1         1 ACC       0.074200
     42 H351         1.9400    -2.3540    -1.1920 h1         1 ACC       0.074200
     43 H37          1.8190    -4.9120    -0.6000 hs         1 ACC       0.193800
     44 H423         6.7290    -0.9720    -2.7600 h1         1 ACC       0.047700
     45 H422         7.0390    -1.2470    -1.0210 h1         1 ACC       0.047700
     46 H421         7.3450     0.3620    -1.7420 h1         1 ACC       0.047700
@<TRIPOS>BOND
     1     1     2 1   
     2     1     3 1   
     3     1     6 2   
     4     2     4 1   
     5     2    25 1   
     6     3     7 1   
     7     3    21 1   
     8     3    26 1   
     9     4     5 1   
    10     4    17 1   
    11     4    27 1   
    12     5    23 1   
    13     5    28 1   
    14     5    29 1   
    15     7     8 1   
    16     7    30 1   
    17     8     9 1   
    18     8    20 2   
    19     9    10 1   
    20     9    31 1   
    21     9    32 1   
    22    10    11 1   
    23    10    33 1   
    24    10    34 1   
    25    11    12 1   
    26    11    35 1   
    27    11    36 1   
    28    12    13 1   
    29    12    14 1   
    30    12    37 1   
    31    13    38 1   
    32    13    39 1   
    33    13    40 1   
    34    14    15 1   
    35    14    16 1   
    36    17    18 1   
    37    17    19 1   
    38    21    22 1   
    39    21    41 1   
    40    21    42 1   
    41    22    43 1   
    42    23    24 1   
    43    24    44 1   
    44    24    45 1   
    45    24    46 1   
@<TRIPOS>SUBSTRUCTURE
     1 ACC         1 TEMP              0 ****  ****    0 ROOT
