@<TRIPOS>MOLECULE
ACC
   46    45     1     0     0
SMALL
abcg2


@<TRIPOS>ATOM
      1 C1           2.0540     0.2190    -0.4350 c          1 ACC       0.600100
      2 N2           3.1760     0.2360     0.2870 ns         1 ACC      -0.441900
      3 C3           1.0150    -0.7970     0.0460 c3         1 ACC       0.032700
      4 C4           4.2960     1.1050     0.0180 c3         1 ACC      -0.044300
      5 C5           5.5990     0.3690     0.2920 c3         1 ACC       0.096600
      6 O6           1.8650     0.8840    -1.4430 o          1 ACC      -0.626100
      7 N7          -0.2790    -0.4240    -0.4500 ns         1 ACC      -0.481900
      8 C8          -1.4210    -0.5320     0.2580 c          1 ACC       0.611100
      9 C9          -2.6670    -0.1820    -0.5280 c3         1 ACC      -0.159400
     10 C10         -3.8950     0.0510     0.3350 c3         1 ACC      -0.073400
     11 C13         -5.1200     0.3240    -0.5300 c3         1 ACC      -0.096400
     12 C16         -6.3820     0.6090     0.2590 c3         1 ACC      -0.056700
     13 N19         -6.8050    -0.5660     1.0750 nz         1 ACC      -0.984000
     14 C20         -7.6040     1.0080    -0.6170 c          1 ACC       0.716000
     15 O21         -7.3920     1.8470    -1.4970 o          1 ACC      -0.660000
     16 O22         -8.6810     0.4540    -0.3110 o          1 ACC      -0.660000
     17 C23          4.2260     2.4420     0.8120 c          1 ACC       0.720000
     18 O25          5.2360     3.1630     0.7100 o          1 ACC      -0.708500
     19 O26          3.1840     2.6710     1.4440 o          1 ACC      -0.708500
     20 O27         -1.4510    -0.9050     1.4210 o          1 ACC      -0.615100
     21 C35          1.4530    -2.1830    -0.4430 c3         1 ACC       0.066600
     22 S37          0.2650    -3.4450     0.1220 sh         1 ACC      -0.457800
     23 S41          5.6670    -1.1640    -0.6810 ss         1 ACC      -0.503000
     24 C42          7.3940    -1.6160    -0.4040 c3         1 ACC       0.045900
     25 H2           3.1760    -0.2500     1.1710 hn         1 ACC       0.305500
     26 H3           0.9780    -0.7960     1.1380 h1         1 ACC       0.102700
     27 H4           4.2630     1.3540    -1.0460 h1         1 ACC       0.081700
     28 H52          6.4340     1.0100     0.0130 h1         1 ACC       0.068200
     29 H51          5.7000     0.1290     1.3550 h1         1 ACC       0.068200
     30 H7          -0.3260    -0.0990    -1.4030 hn         1 ACC       0.331500
     31 H92         -2.8520    -1.0090    -1.2220 hc         1 ACC       0.063700
     32 H91         -2.4710     0.6910    -1.1570 hc         1 ACC       0.063700
     33 H102        -3.7290     0.8990     1.0060 hc         1 ACC       0.044200
     34 H101        -4.0580    -0.8200     0.9730 hc         1 ACC       0.044200
     35 H132        -5.2950    -0.5170    -1.2110 hc         1 ACC       0.077700
     36 H131        -4.9380     1.1940    -1.1620 hc         1 ACC       0.077700
     37 H16         -6.2000     1.4200     0.9690 hx         1 ACC       0.086700
     38 H193        -6.4700    -1.4530     0.7000 hn         1 ACC       0.495333
     39 H192        -7.8380    -0.5720     1.0020 hn         1 ACC       0.495333
     40 H191        -6.5270    -0.5170     2.0520 hn         1 ACC       0.495333
     41 H352         2.4430    -2.4160    -0.0540 h1         1 ACC       0.074200
     42 H351         1.5000    -2.1920    -1.5330 h1         1 ACC       0.074200
     43 H37          0.8570    -4.4830    -0.4780 hs         1 ACC       0.193800
     44 H423         7.5870    -2.5400    -0.9450 h1         1 ACC       0.047700
     45 H422         7.5920    -1.7860     0.6540 h1         1 ACC       0.047700
     46 H421         8.0690    -0.8460    -0.7770 h1         1 ACC       0.047700
@<TRIPOS>BOND
     1     1     2 1   
     2     1     3 1   
     3     1     6 2   
     4     2     4 1   
     5     2    25 1   
     6     3     7 1   
     7     3    21 1   
     8     3    26 1   
     9     4     5 1   
    10     4    17 1   
    11     4    27 1   
    12     5    23 1   
    13     5    28 1   
    14     5    29 1   
    15     7     8 1   
    16     7    30 1   
    17     8     9 1   
    18     8    20 2   
    19     9    10 1   
    20     9    31 1   
    21     9    32 1   
    22    10    11 1   
    23    10    33 1   
    24    10    34 1   
    25    11    12 1   
    26    11    35 1   
    27    11    36 1   
    28    12    13 1   
    29    12    14 1   
    30    12    37 1   
    31    13    38 1   
    32    13    39 1   
    33    13    40 1   
    34    14    15 1   
    35    14    16 1   
    36    17    18 1   
    37    17    19 1   
    38    21    22 1   
    39    21    41 1   
    40    21    42 1   
    41    22    43 1   
    42    23    24 1   
    43    24    44 1   
    44    24    45 1   
    45    24    46 1   
@<TRIPOS>SUBSTRUCTURE
     1 ACC         1 TEMP              0 ****  ****    0 ROOT
