@<TRIPOS>MOLECULE
ACD
   53    52     1     0     0
SMALL
No Charge or Current Charge


@<TRIPOS>ATOM
      1 C1           1.2780     1.2380    -7.4820 c          1 ACD       0.717000
      2 C2          -0.0130     0.5030    -7.0800 c3         1 ACD      -0.206400
      3 C3           0.3060    -0.6190    -6.0620 c3         1 ACD      -0.049400
      4 C4          -0.9410    -1.4100    -5.6140 c3         1 ACD      -0.060200
      5 C5          -0.6000    -2.5060    -4.6210 c2         1 ACD      -0.175200
      6 C6          -0.5580    -2.4050    -3.2800 c2         1 ACD      -0.258200
      7 C7          -0.8040    -1.1680    -2.4370 c3         1 ACD      -0.009000
      8 C8          -1.9560    -1.3910    -1.4770 c2         1 ACD      -0.188200
      9 C9          -2.1040    -0.8590    -0.2500 c2         1 ACD      -0.243200
     10 C10         -1.1630     0.1040     0.4510 c3         1 ACD      -0.010000
     11 C11         -1.9390     1.1540     1.2230 c2         1 ACD      -0.197200
     12 C12         -1.6320     1.6670     2.4280 c2         1 ACD      -0.232200
     13 C13         -0.4260     1.3290     3.2850 c3         1 ACD      -0.010000
     14 C14          0.0170     2.5350     4.0920 c2         1 ACD      -0.202200
     15 C15          0.1200     2.6320     5.4300 c2         1 ACD      -0.227200
     16 C16         -0.2170     1.5650     6.4550 c3         1 ACD      -0.040200
     17 C17          0.9820     0.6380     6.7460 c3         1 ACD      -0.073400
     18 C18          0.6620    -0.4610     7.7830 c3         1 ACD      -0.076400
     19 C19          1.8630    -1.3890     8.0710 c3         1 ACD      -0.075400
     20 C20          1.5440    -2.4860     9.1050 c3         1 ACD      -0.088100
     21 O1           1.6300     2.1950    -6.8090 o          1 ACD      -0.742000
     22 O2           1.9190     0.8050    -8.4270 o          1 ACD      -0.742000
     23 H21         -0.4560     0.0010    -7.9500 hc         1 ACD       0.014700
     24 H22         -0.7020     1.1870    -6.5680 hc         1 ACD       0.014700
     25 H31          0.7870    -0.1790    -5.1790 hc         1 ACD       0.041200
     26 H32          1.0310    -1.3140    -6.5040 hc         1 ACD       0.041200
     27 H41         -1.4250    -1.8510    -6.4940 hc         1 ACD       0.034200
     28 H42         -1.6740    -0.7150    -5.1870 hc         1 ACD       0.034200
     29 H5          -0.3860    -3.4680    -5.0920 ha         1 ACD       0.160000
     30 H6          -0.3010    -3.2870    -2.6890 ha         1 ACD       0.153000
     31 H71         -1.0170    -0.2940    -3.0630 hc         1 ACD       0.051700
     32 H72          0.1140    -0.9240    -1.8880 hc         1 ACD       0.051700
     33 H8          -2.7220    -2.0680    -1.8620 ha         1 ACD       0.168000
     34 H9          -2.9840    -1.1190     0.3410 ha         1 ACD       0.160000
     35 H101        -0.5090     0.6050    -0.2730 hc         1 ACD       0.049700
     36 H102        -0.5050    -0.4640     1.1200 hc         1 ACD       0.049700
     37 H11         -2.8390     1.5000     0.7090 ha         1 ACD       0.172000
     38 H12         -2.2910     2.4150     2.8730 ha         1 ACD       0.165000
     39 H131         0.4100     0.9950     2.6590 hc         1 ACD       0.048700
     40 H132        -0.6690     0.4820     3.9350 hc         1 ACD       0.048700
     41 H14          0.2920     3.3920     3.4720 ha         1 ACD       0.169000
     42 H15          0.4680     3.5670     5.8730 ha         1 ACD       0.162000
     43 H161        -1.0670     0.9590     6.1180 hc         1 ACD       0.043200
     44 H162        -0.5410     2.0410     7.3890 hc         1 ACD       0.043200
     45 H171         1.8230     1.2430     7.1070 hc         1 ACD       0.038700
     46 H172         1.3050     0.1670     5.8100 hc         1 ACD       0.038700
     47 H181        -0.1800    -1.0640     7.4210 hc         1 ACD       0.036700
     48 H182         0.3390     0.0100     8.7200 hc         1 ACD       0.036700
     49 H191         2.7060    -0.7900     8.4360 hc         1 ACD       0.036700
     50 H192         2.1870    -1.8630     7.1370 hc         1 ACD       0.036700
     51 H201         2.4240    -3.1170     9.2760 hc         1 ACD       0.030033
     52 H202         1.2490    -2.0420    10.0630 hc         1 ACD       0.030033
     53 H203         0.7260    -3.1250     8.7520 hc         1 ACD       0.030033
@<TRIPOS>BOND
     1     1     2 1   
     2     1    21 1   
     3     1    22 1   
     4     2     3 1   
     5     2    23 1   
     6     2    24 1   
     7     3     4 1   
     8     3    25 1   
     9     3    26 1   
    10     4     5 1   
    11     4    27 1   
    12     4    28 1   
    13     5     6 2   
    14     5    29 1   
    15     6     7 1   
    16     6    30 1   
    17     7     8 1   
    18     7    31 1   
    19     7    32 1   
    20     8     9 2   
    21     8    33 1   
    22     9    10 1   
    23     9    34 1   
    24    10    11 1   
    25    10    35 1   
    26    10    36 1   
    27    11    12 2   
    28    11    37 1   
    29    12    13 1   
    30    12    38 1   
    31    13    14 1   
    32    13    39 1   
    33    13    40 1   
    34    14    15 2   
    35    14    41 1   
    36    15    16 1   
    37    15    42 1   
    38    16    17 1   
    39    16    43 1   
    40    16    44 1   
    41    17    18 1   
    42    17    45 1   
    43    17    46 1   
    44    18    19 1   
    45    18    47 1   
    46    18    48 1   
    47    19    20 1   
    48    19    49 1   
    49    19    50 1   
    50    20    51 1   
    51    20    52 1   
    52    20    53 1   
@<TRIPOS>SUBSTRUCTURE
     1 ACD         1 TEMP              0 ****  ****    0 ROOT
