@<TRIPOS>MOLECULE
ACD
   53    52     1     0     0
SMALL
abcg2


@<TRIPOS>ATOM
      1 C1          -1.3710     1.0380    -9.2810 c          1 ACD       0.717000
      2 C2          -1.6170     0.1570    -8.0430 c3         1 ACD      -0.206400
      3 C3          -0.4220    -0.0550    -7.1290 c3         1 ACD      -0.049400
      4 C4          -0.7570    -0.9410    -5.9260 c3         1 ACD      -0.060200
      5 C5           0.4370    -1.1990    -5.0630 c2         1 ACD      -0.175200
      6 C6           0.6100    -0.8760    -3.7820 c2         1 ACD      -0.258200
      7 C7          -0.3720    -0.1980    -2.8690 c3         1 ACD      -0.009000
      8 C8          -0.8860    -1.1630    -1.8390 c2         1 ACD      -0.188200
      9 C9          -0.6360    -1.1610    -0.5310 c2         1 ACD      -0.243200
     10 C10          0.1950    -0.1720     0.2350 c3         1 ACD      -0.010000
     11 C11         -0.6740     0.6850     1.1100 c2         1 ACD      -0.197200
     12 C12         -0.7080     0.7100     2.4420 c2         1 ACD      -0.232200
     13 C13          0.1430    -0.0870     3.3890 c3         1 ACD      -0.010000
     14 C14          1.1810     0.7950     4.0250 c2         1 ACD      -0.202200
     15 C15          1.2260     1.2170     5.2870 c2         1 ACD      -0.227200
     16 C16          0.2800     0.8960     6.4000 c3         1 ACD      -0.040200
     17 C17          0.9550     0.1030     7.5200 c3         1 ACD      -0.073400
     18 C18          0.0430    -0.1250     8.7180 c3         1 ACD      -0.076400
     19 C19          0.7080    -0.9210     9.8350 c3         1 ACD      -0.075400
     20 C20         -0.2070    -1.1300    11.0340 c3         1 ACD      -0.088100
     21 O1          -0.2300     1.5150    -9.4410 o          1 ACD      -0.742000
     22 O2          -2.3540     1.2080   -10.0330 o          1 ACD      -0.742000
     23 H21         -1.9980    -0.8130    -8.3840 hc         1 ACD       0.014700
     24 H22         -2.4420     0.5990    -7.4720 hc         1 ACD       0.014700
     25 H31         -0.0500     0.9070    -6.7700 hc         1 ACD       0.041200
     26 H32          0.4010    -0.5070    -7.6910 hc         1 ACD       0.041200
     27 H41         -1.1390    -1.9020    -6.2920 hc         1 ACD       0.034200
     28 H42         -1.5710    -0.4900    -5.3540 hc         1 ACD       0.034200
     29 H5           1.2620    -1.6980    -5.5640 ha         1 ACD       0.160000
     30 H6           1.5520    -1.1460    -3.3130 ha         1 ACD       0.153000
     31 H71         -1.2170     0.2010    -3.4340 hc         1 ACD       0.051700
     32 H72          0.1100     0.6580    -2.3920 hc         1 ACD       0.051700
     33 H8          -1.5120    -1.9580    -2.2340 ha         1 ACD       0.168000
     34 H9          -1.0920    -1.9400     0.0740 ha         1 ACD       0.160000
     35 H101         0.7570     0.4690    -0.4470 hc         1 ACD       0.049700
     36 H102         0.9360    -0.7110     0.8310 hc         1 ACD       0.049700
     37 H11         -1.3560     1.3380     0.5740 ha         1 ACD       0.172000
     38 H12         -1.3970     1.4000     2.9190 ha         1 ACD       0.165000
     39 H131         0.6430    -0.9060     2.8670 hc         1 ACD       0.048700
     40 H132        -0.4950    -0.5470     4.1460 hc         1 ACD       0.048700
     41 H14          1.9590     1.1370     3.3480 ha         1 ACD       0.169000
     42 H15          2.0550     1.8630     5.5660 ha         1 ACD       0.162000
     43 H161        -0.5920     0.3450     6.0400 hc         1 ACD       0.043200
     44 H162        -0.1030     1.8340     6.8170 hc         1 ACD       0.043200
     45 H171         1.8580     0.6320     7.8460 hc         1 ACD       0.038700
     46 H172         1.2930    -0.8600     7.1250 hc         1 ACD       0.038700
     47 H181        -0.8640    -0.6470     8.3930 hc         1 ACD       0.036700
     48 H182        -0.2890     0.8430     9.1100 hc         1 ACD       0.036700
     49 H191         1.6190    -0.4050    10.1510 hc         1 ACD       0.036700
     50 H192         1.0290    -1.8910     9.4440 hc         1 ACD       0.036700
     51 H201         0.2850    -1.7030    11.8210 hc         1 ACD       0.030033
     52 H202        -0.5180    -0.1760    11.4640 hc         1 ACD       0.030033
     53 H203        -1.1110    -1.6710    10.7480 hc         1 ACD       0.030033
@<TRIPOS>BOND
     1     1     2 1   
     2     1    21 1   
     3     1    22 1   
     4     2     3 1   
     5     2    23 1   
     6     2    24 1   
     7     3     4 1   
     8     3    25 1   
     9     3    26 1   
    10     4     5 1   
    11     4    27 1   
    12     4    28 1   
    13     5     6 2   
    14     5    29 1   
    15     6     7 1   
    16     6    30 1   
    17     7     8 1   
    18     7    31 1   
    19     7    32 1   
    20     8     9 2   
    21     8    33 1   
    22     9    10 1   
    23     9    34 1   
    24    10    11 1   
    25    10    35 1   
    26    10    36 1   
    27    11    12 2   
    28    11    37 1   
    29    12    13 1   
    30    12    38 1   
    31    13    14 1   
    32    13    39 1   
    33    13    40 1   
    34    14    15 2   
    35    14    41 1   
    36    15    16 1   
    37    15    42 1   
    38    16    17 1   
    39    16    43 1   
    40    16    44 1   
    41    17    18 1   
    42    17    45 1   
    43    17    46 1   
    44    18    19 1   
    45    18    47 1   
    46    18    48 1   
    47    19    20 1   
    48    19    49 1   
    49    19    50 1   
    50    20    51 1   
    51    20    52 1   
    52    20    53 1   
@<TRIPOS>SUBSTRUCTURE
     1 ACD         1 TEMP              0 ****  ****    0 ROOT
