@<TRIPOS>MOLECULE
ACF
   49    51     1     0     0
SMALL
No Charge or Current Charge


@<TRIPOS>ATOM
      1 C1          14.9210    -3.3270    34.0210 c          1 ACF       0.608100
      2 C2          15.8920    -2.9800    35.2330 c5         1 ACF       0.114500
      3 C4          15.5760    -3.8650    36.4660 c5         1 ACF      -0.084400
      4 C5          16.4960    -3.1930    37.5190 c5         1 ACF      -0.091400
      5 C6          16.3780    -1.6690    37.1820 c5         1 ACF       0.184500
      6 C9          15.6050    -0.8300    38.2490 c3         1 ACF       0.177600
      7 O3          14.0860    -2.5710    33.5320 o          1 ACF      -0.545100
      8 N7          15.7510    -1.6110    35.8260 n7         1 ACF      -0.847400
      9 N8          15.0410    -4.6760    33.5920 n          1 ACF      -0.440800
     10 C10         13.3810    -0.8660    39.3470 ca         1 ACF       0.115100
     11 O11         14.2880    -1.3900    38.4450 os         1 ACF      -0.337100
     12 C12         12.1270    -1.4990    39.4850 ca         1 ACF       0.063000
     13 C13         11.1810    -0.9970    40.3910 ca         1 ACF      -0.106000
     14 C14         11.4740     0.1380    41.1650 ca         1 ACF      -0.116000
     15 C15         12.7230     0.7930    41.0460 ca         1 ACF      -0.099600
     16 C16         13.6720     0.2760    40.1280 ca         1 ACF      -0.168000
     17 C17         14.0740    -5.2500    32.6130 c5         1 ACF       0.070700
     18 C18         14.7780    -6.5830    32.2210 c5         1 ACF      -0.094400
     19 C19         16.2550    -6.1400    32.1870 c5         1 ACF      -0.099400
     20 C20         16.3600    -5.3580    33.5190 c5         1 ACF       0.106000
     21 C21         12.6360    -5.4650    33.1800 c3         1 ACF       0.138800
     22 N22         12.6220    -6.2240    34.4590 n8         1 ACF      -0.990200
     23 C24         13.0360     2.0260    41.8900 c          1 ACF       0.713600
     24 Cl23        11.7230    -2.9300    38.5320 cl         1 ACF      -0.239000
     25 O25         14.1290     2.5620    41.7630 o          1 ACF      -0.719000
     26 O26         12.1850     2.4370    42.6660 o          1 ACF      -0.719000
     27 H2          16.9310    -3.1250    34.9100 h1         1 ACF       0.020700
     28 H41         14.5180    -3.8010    36.7500 hc         1 ACF       0.061700
     29 H42         15.8180    -4.9230    36.3210 hc         1 ACF       0.061700
     30 H51         16.1950    -3.4320    38.5460 hc         1 ACF       0.045200
     31 H52         17.5320    -3.5330    37.4050 hc         1 ACF       0.045200
     32 H6          17.3920    -1.2480    37.1260 h1         1 ACF       0.038700
     33 H91         16.1730    -0.8500    39.1880 h1         1 ACF       0.043700
     34 H92         15.5400     0.2100    37.9060 h1         1 ACF       0.043700
     35 HN7         16.2030    -0.9010    35.2360 hn         1 ACF       0.412000
     36 H13         10.2170    -1.4880    40.4940 ha         1 ACF       0.103000
     37 H14         10.7240     0.5080    41.8600 ha         1 ACF       0.132000
     38 H16         14.6310     0.7760    40.0330 ha         1 ACF       0.134000
     39 H17         13.9980    -4.5950    31.7330 h1         1 ACF       0.069700
     40 H181        14.4320    -6.9690    31.2560 hc         1 ACF       0.045700
     41 H182        14.6270    -7.3750    32.9630 hc         1 ACF       0.045700
     42 H191        16.9530    -6.9830    32.1390 hc         1 ACF       0.048200
     43 H192        16.4580    -5.4910    31.3260 hc         1 ACF       0.048200
     44 H201        16.4940    -6.0380    34.3700 h1         1 ACF       0.041700
     45 H202        17.2070    -4.6610    33.4910 h1         1 ACF       0.041700
     46 H211        12.1730    -4.4820    33.3500 h1         1 ACF       0.070700
     47 H212        12.0280    -5.9950    32.4330 h1         1 ACF       0.070700
     48 H221        13.0580    -7.1390    34.3000 hn         1 ACF       0.390500
     49 H222        13.2760    -5.7650    35.1020 hn         1 ACF       0.390500
@<TRIPOS>BOND
     1     1     2 1   
     2     1     7 2   
     3     1     9 1   
     4     2     3 1   
     5     2     8 1   
     6     2    27 1   
     7     3     4 1   
     8     3    28 1   
     9     3    29 1   
    10     4     5 1   
    11     4    30 1   
    12     4    31 1   
    13     5     6 1   
    14     5     8 1   
    15     5    32 1   
    16     6    11 1   
    17     6    33 1   
    18     6    34 1   
    19     8    35 1   
    20     9    17 1   
    21     9    20 1   
    22    10    11 1   
    23    10    12 ar  
    24    10    16 ar  
    25    12    13 ar  
    26    12    24 1   
    27    13    14 ar  
    28    13    36 1   
    29    14    15 ar  
    30    14    37 1   
    31    15    16 ar  
    32    15    23 1   
    33    16    38 1   
    34    17    18 1   
    35    17    21 1   
    36    17    39 1   
    37    18    19 1   
    38    18    40 1   
    39    18    41 1   
    40    19    20 1   
    41    19    42 1   
    42    19    43 1   
    43    20    44 1   
    44    20    45 1   
    45    21    22 1   
    46    21    46 1   
    47    21    47 1   
    48    22    48 1   
    49    22    49 1   
    50    23    25 1   
    51    23    26 1   
@<TRIPOS>SUBSTRUCTURE
     1 ACF         1 TEMP              0 ****  ****    0 ROOT
