@<TRIPOS>MOLECULE
ACF
   49    51     1     0     0
SMALL
abcg2


@<TRIPOS>ATOM
      1 C1          15.0770    -3.1220    34.5540 c          1 ACF       0.608100
      2 C2          16.3800    -2.9260    35.3250 c5         1 ACF       0.114500
      3 C4          16.4170    -3.8000    36.5940 c5         1 ACF      -0.084400
      4 C5          17.2530    -2.9740    37.5620 c5         1 ACF      -0.091400
      5 C6          16.9220    -1.5240    37.1900 c5         1 ACF       0.184500
      6 C9          15.8470    -0.8920    38.0530 c3         1 ACF       0.177600
      7 O3          14.2370    -2.2410    34.4650 o          1 ACF      -0.545100
      8 N7          16.5460    -1.5580    35.7790 n7         1 ACF      -0.847400
      9 N8          14.8890    -4.3370    33.9940 n          1 ACF      -0.440800
     10 C10         13.6130    -1.3080    38.7270 ca         1 ACF       0.115100
     11 O11         14.6820    -1.6950    38.0200 os         1 ACF      -0.337100
     12 C12         12.4770    -2.1240    38.6660 ca         1 ACF       0.063000
     13 C13         11.3310    -1.8030    39.3690 ca         1 ACF      -0.106000
     14 C14         11.2940    -0.6590    40.1530 ca         1 ACF      -0.116000
     15 C15         12.4060     0.1710    40.2300 ca         1 ACF      -0.099600
     16 C16         13.5540    -0.1620    39.5150 ca         1 ACF      -0.168000
     17 C17         13.6570    -4.6520    33.2620 c5         1 ACF       0.070700
     18 C18         14.0100    -5.9260    32.4810 c5         1 ACF      -0.094400
     19 C19         15.5330    -5.9850    32.4850 c5         1 ACF      -0.099400
     20 C20         15.8800    -5.3970    33.8430 c5         1 ACF       0.106000
     21 C21         12.4600    -4.8340    34.2040 c3         1 ACF       0.138800
     22 N22         12.6480    -5.7690    35.2980 n8         1 ACF      -0.990200
     23 C24         12.3790     1.4330    41.0870 c          1 ACF       0.713600
     24 CL23        12.5080    -3.5550    37.6930 cl         1 ACF      -0.239000
     25 O25         13.4080     2.1340    41.0820 o          1 ACF      -0.719000
     26 O26         11.3270     1.6500    41.7180 o          1 ACF      -0.719000
     27 H2          17.2150    -3.2110    34.6720 h1         1 ACF       0.020700
     28 H41         15.4110    -3.9540    36.9860 hc         1 ACF       0.061700
     29 H42         16.8450    -4.7820    36.3990 hc         1 ACF       0.061700
     30 H51         17.0520    -3.2100    38.6080 hc         1 ACF       0.045200
     31 H52         18.3160    -3.1560    37.3860 hc         1 ACF       0.045200
     32 H6          17.8000    -0.8840    37.3240 h1         1 ACF       0.038700
     33 H91         16.2150    -0.7950    39.0810 h1         1 ACF       0.043700
     34 H92         15.6270     0.1160    37.6810 h1         1 ACF       0.043700
     35 HN7         17.2250    -1.0750    35.2130 hn         1 ACF       0.412000
     36 H13         10.4670    -2.4510    39.3030 ha         1 ACF       0.103000
     37 H14         10.3960    -0.4150    40.7030 ha         1 ACF       0.132000
     38 H16         14.4090     0.4970    39.5870 ha         1 ACF       0.134000
     39 H17         13.4340    -3.8340    32.5700 h1         1 ACF       0.069700
     40 H181        13.5840    -5.9120    31.4790 hc         1 ACF       0.045700
     41 H182        13.6120    -6.8090    32.9880 hc         1 ACF       0.045700
     42 H191        15.9220    -6.9940    32.3540 hc         1 ACF       0.048200
     43 H192        15.9480    -5.3580    31.6920 hc         1 ACF       0.048200
     44 H201        15.7680    -6.1510    34.6280 h1         1 ACF       0.041700
     45 H202        16.8980    -5.0170    33.8890 h1         1 ACF       0.041700
     46 H211        12.1890    -3.8660    34.6250 h1         1 ACF       0.070700
     47 H212        11.6050    -5.1620    33.6060 h1         1 ACF       0.070700
     48 H221        12.8180    -6.7030    34.9460 hn         1 ACF       0.390500
     49 H222        13.4720    -5.5130    35.8280 hn         1 ACF       0.390500
@<TRIPOS>BOND
     1     1     2 1   
     2     1     7 2   
     3     1     9 1   
     4     2     3 1   
     5     2     8 1   
     6     2    27 1   
     7     3     4 1   
     8     3    28 1   
     9     3    29 1   
    10     4     5 1   
    11     4    30 1   
    12     4    31 1   
    13     5     6 1   
    14     5     8 1   
    15     5    32 1   
    16     6    11 1   
    17     6    33 1   
    18     6    34 1   
    19     8    35 1   
    20     9    17 1   
    21     9    20 1   
    22    10    11 1   
    23    10    12 ar  
    24    10    16 ar  
    25    12    13 ar  
    26    12    24 1   
    27    13    14 ar  
    28    13    36 1   
    29    14    15 ar  
    30    14    37 1   
    31    15    16 ar  
    32    15    23 1   
    33    16    38 1   
    34    17    18 1   
    35    17    21 1   
    36    17    39 1   
    37    18    19 1   
    38    18    40 1   
    39    18    41 1   
    40    19    20 1   
    41    19    42 1   
    42    19    43 1   
    43    20    44 1   
    44    20    45 1   
    45    21    22 1   
    46    21    46 1   
    47    21    47 1   
    48    22    48 1   
    49    22    49 1   
    50    23    25 1   
    51    23    26 1   
@<TRIPOS>SUBSTRUCTURE
     1 ACF         1 TEMP              0 ****  ****    0 ROOT
