@<TRIPOS>MOLECULE
ACG
  107   111     1     0     0
SMALL
No Charge or Current Charge


@<TRIPOS>ATOM
      1 C1A         12.2440    54.4060    22.8400 c6         1 ACG       0.242700
      2 C2A         11.7220    52.9400    23.0820 c6         1 ACG       0.185300
      3 C3A         12.8140    51.9080    22.6990 c6         1 ACG       0.126300
      4 C4A         13.1200    52.0350    21.1730 c6         1 ACG       0.183500
      5 C5A         13.4170    53.4850    20.7710 c2         1 ACG      -0.130400
      6 C6A         14.1850    53.6810    19.4690 c3         1 ACG       0.200800
      7 C7A         13.0000    54.5250    21.5240 c2         1 ACG      -0.239200
      8 O2A         11.3300    52.6880    24.4440 oh         1 ACG      -0.667000
      9 O3A         12.4000    50.5720    23.0790 oh         1 ACG      -0.750000
     10 O4A         14.2080    51.1710    20.7680 os         1 ACG      -0.494000
     11 O6A         13.7450    52.7530    18.4720 oh         1 ACG      -0.672000
     12 C1B         12.6290    57.4730    27.3190 c6         1 ACG       0.389300
     13 C2B         12.4740    55.9290    27.5470 c6         1 ACG       0.150300
     14 C3B         13.1360    55.1700    26.3650 c6         1 ACG       0.146300
     15 C4B         12.5450    55.6450    25.0080 c6         1 ACG       0.152500
     16 C5B         12.7160    57.1990    24.8970 c6         1 ACG       0.146300
     17 C6B         12.0520    57.8060    23.6350 c3         1 ACG      -0.090100
     18 N4B         13.1810    54.8770    23.8900 n7         1 ACG      -0.934400
     19 O2B         13.0460    55.4730    28.7980 oh         1 ACG      -0.741000
     20 O3B         12.9450    53.7530    26.4940 oh         1 ACG      -0.697000
     21 O5B         12.1010    57.8570    26.0310 os         1 ACG      -0.468000
     22 C1C         16.1210    60.2510    30.2910 c6         1 ACG       0.388300
     23 C2C         14.8540    59.4880    30.8080 c6         1 ACG       0.152300
     24 C3C         14.4930    58.3510    29.8150 c6         1 ACG       0.123300
     25 C4C         14.2990    58.9380    28.3760 c6         1 ACG       0.128300
     26 C5C         15.5860    59.7200    27.9660 c6         1 ACG       0.162300
     27 C6C         15.4400    60.4210    26.5740 c3         1 ACG       0.168600
     28 O2C         15.0210    58.9130    32.1240 oh         1 ACG      -0.737000
     29 O3C         13.3410    57.6290    30.3030 oh         1 ACG      -0.752000
     30 O4C         14.0080    57.8990    27.4050 os         1 ACG      -0.494000
     31 O5C         15.9050    60.7420    28.9530 os         1 ACG      -0.454000
     32 C1D         20.8590    59.4460    32.7080 c6         1 ACG       0.382300
     33 C2D         19.5640    60.0790    33.3390 c6         1 ACG       0.163300
     34 C3D         18.3020    59.5750    32.5850 c6         1 ACG       0.126300
     35 C4D         18.4340    59.9070    31.0590 c6         1 ACG       0.127300
     36 C5D         19.7630    59.2950    30.5140 c6         1 ACG       0.163300
     37 C6D         20.0230    59.6780    29.0180 c3         1 ACG       0.167600
     38 O2D         19.4110    59.8180    34.7510 oh         1 ACG      -0.709000
     39 O3D         17.1140    60.1330    33.1930 oh         1 ACG      -0.752000
     40 O4D         17.3010    59.4140    30.2970 os         1 ACG      -0.496000
     41 O5D         20.9080    59.7470    31.3010 os         1 ACG      -0.476000
     42 O6D         20.2800    61.0840    28.8110 oh         1 ACG      -0.717000
     43 C1E         13.8520    49.8140    20.4350 c6         1 ACG       0.384300
     44 C2E         14.6320    48.7600    21.2940 c6         1 ACG       0.157300
     45 C3E         16.1380    48.7980    20.9160 c6         1 ACG       0.135300
     46 C4E         16.3140    48.5910    19.3830 c6         1 ACG       0.114300
     47 C5E         15.4910    49.6880    18.6310 c6         1 ACG       0.140300
     48 C6E         15.5110    49.5210    17.0910 c3         1 ACG      -0.095100
     49 O2E         14.4830    48.9640    22.7210 oh         1 ACG      -0.736000
     50 O3E         16.8730    47.7940    21.6420 oh         1 ACG      -0.673000
     51 O4E         17.7190    48.6330    19.0460 oh         1 ACG      -0.726000
     52 O5E         14.0970    49.6300    19.0240 os         1 ACG      -0.483000
     53 H1A         11.3730    55.0780    22.7870 h1         1 ACG       0.071700
     54 H2A         10.8600    52.7780    22.4170 h1         1 ACG       0.051700
     55 H3A         13.7340    52.1760    23.2420 h1         1 ACG       0.065700
     56 H4A         12.2140    51.7390    20.6210 h1         1 ACG       0.070700
     57 H6A1        14.0480    54.7100    19.1100 h1         1 ACG       0.049700
     58 H6A2        15.2580    53.5470    19.6640 h1         1 ACG       0.049700
     59 H7A         13.2030    55.5460    21.2000 ha         1 ACG       0.183000
     60 HOA2        11.3800    51.7030    24.4990 ho         1 ACG       0.474000
     61 HOA3        13.2120    49.9860    22.9740 ho         1 ACG       0.547000
     62 HOA6        13.8780    51.8640    18.8800 ho         1 ACG       0.461000
     63 H1B         12.0360    57.9820    28.0950 h2         1 ACG       0.091700
     64 H2B         11.3970    55.7050    27.5330 h1         1 ACG       0.062700
     65 H3B         14.2130    55.3990    26.3640 h1         1 ACG       0.058700
     66 H4B         11.4650    55.4260    25.0320 h1         1 ACG       0.064700
     67 H5B         13.7860    57.4530    24.8770 h1         1 ACG       0.050700
     68 H6B1        12.1280    58.9000    23.6410 hc         1 ACG       0.045367
     69 H6B2        12.5380    57.4520    22.7190 hc         1 ACG       0.045367
     70 H6B3        10.9890    57.5430    23.5780 hc         1 ACG       0.045367
     71 HN4         13.9050    55.4580    23.4520 hn         1 ACG       0.441000
     72 HOB2        13.1940    54.5030    28.6520 ho         1 ACG       0.540000
     73 HOB3        12.6220    53.4880    25.5880 ho         1 ACG       0.498000
     74 H1C         16.2780    61.1190    30.9510 h2         1 ACG       0.093700
     75 H2C         14.0200    60.2060    30.8220 h1         1 ACG       0.066700
     76 H3C         15.3540    57.6660    29.7690 h1         1 ACG       0.066700
     77 H4C         13.4650    59.6570    28.3880 h1         1 ACG       0.079700
     78 H5C         16.4270    59.0150    27.9000 h1         1 ACG       0.062700
     79 H6C1        16.4280    60.8130    26.2960 h1         1 ACG       0.032700
     80 H6C2        15.1780    59.6590    25.8270 h1         1 ACG       0.032700
     81 HOC2        14.3340    58.1970    32.1400 ho         1 ACG       0.537000
     82 HOC3        13.2690    56.7940    29.7420 ho         1 ACG       0.550000
     83 HOC6        14.5060    61.8980    25.6620 ho         1 ACG       0.503000
     84 H1D         21.7380    59.8920    33.2010 h2         1 ACG       0.078700
     85 H2D         19.6320    61.1660    33.1830 h1         1 ACG       0.055700
     86 H3D         18.2730    58.4780    32.6770 h1         1 ACG       0.068700
     87 H4D         18.4990    60.9990    30.9330 h1         1 ACG       0.078700
     88 H5D         19.6970    58.1990    30.5680 h1         1 ACG       0.061700
     89 H6D1        20.8820    59.0890    28.6700 h1         1 ACG       0.033700
     90 H6D2        19.1570    59.3600    28.4220 h1         1 ACG       0.033700
     91 HOD2        18.4360    59.9130    34.8900 ho         1 ACG       0.524000
     92 HOD3        16.3330    59.6300    32.8040 ho         1 ACG       0.547000
     93 HOD6        20.5150    61.1970    27.8610 ho         1 ACG       0.503000
     94 H1E         12.7770    49.6560    20.6200 h2         1 ACG       0.091700
     95 H2E         14.2410    47.7670    21.0230 h1         1 ACG       0.065700
     96 H3E         16.5280    49.7970    21.1660 h1         1 ACG       0.072700
     97 H4E         15.8950    47.6080    19.1180 h1         1 ACG       0.057700
     98 H5E         15.8940    50.6820    18.8770 h1         1 ACG       0.065700
     99 H6E1        14.8700    50.2690    16.6090 hc         1 ACG       0.051700
    100 H6E2        16.5220    49.6520    16.6870 hc         1 ACG       0.051700
    101 H6E3        15.1530    48.5290    16.7920 hc         1 ACG       0.051700
    102 HOE2        15.2470    48.4710    23.1160 ho         1 ACG       0.539000
    103 HOE3        17.7080    47.6830    21.1300 ho         1 ACG       0.467000
    104 HOE4        17.8080    48.3230    18.1130 ho         1 ACG       0.514000
    105 O6C         14.4680    61.4890    26.5570 oh         1 ACG      -0.715000
    106 O1D         20.9120    58.0220    32.8280 oh         1 ACG      -0.723000
    107 HOD1        21.7410    57.7640    32.3690 ho         1 ACG       0.509000
@<TRIPOS>BOND
     1     1     2 1   
     2     1     7 1   
     3     1    18 1   
     4     1    53 1   
     5     2     3 1   
     6     2     8 1   
     7     2    54 1   
     8     3     4 1   
     9     3     9 1   
    10     3    55 1   
    11     4     5 1   
    12     4    10 1   
    13     4    56 1   
    14     5     6 1   
    15     5     7 2   
    16     6    11 1   
    17     6    57 1   
    18     6    58 1   
    19     7    59 1   
    20     8    60 1   
    21     9    61 1   
    22    10    43 1   
    23    11    62 1   
    24    12    13 1   
    25    12    21 1   
    26    12    30 1   
    27    12    63 1   
    28    13    14 1   
    29    13    19 1   
    30    13    64 1   
    31    14    15 1   
    32    14    20 1   
    33    14    65 1   
    34    15    16 1   
    35    15    18 1   
    36    15    66 1   
    37    16    17 1   
    38    16    21 1   
    39    16    67 1   
    40    17    68 1   
    41    17    69 1   
    42    17    70 1   
    43    18    71 1   
    44    19    72 1   
    45    20    73 1   
    46    22    23 1   
    47    22    31 1   
    48    22    40 1   
    49    22    74 1   
    50    23    24 1   
    51    23    28 1   
    52    23    75 1   
    53    24    25 1   
    54    24    29 1   
    55    24    76 1   
    56    25    26 1   
    57    25    30 1   
    58    25    77 1   
    59    26    27 1   
    60    26    31 1   
    61    26    78 1   
    62    27    79 1   
    63    27    80 1   
    64    27   105 1   
    65    28    81 1   
    66    29    82 1   
    67    32    33 1   
    68    32    41 1   
    69    32    84 1   
    70    32   106 1   
    71    33    34 1   
    72    33    38 1   
    73    33    85 1   
    74    34    35 1   
    75    34    39 1   
    76    34    86 1   
    77    35    36 1   
    78    35    40 1   
    79    35    87 1   
    80    36    37 1   
    81    36    41 1   
    82    36    88 1   
    83    37    42 1   
    84    37    89 1   
    85    37    90 1   
    86    38    91 1   
    87    39    92 1   
    88    42    93 1   
    89    43    44 1   
    90    43    52 1   
    91    43    94 1   
    92    44    45 1   
    93    44    49 1   
    94    44    95 1   
    95    45    46 1   
    96    45    50 1   
    97    45    96 1   
    98    46    47 1   
    99    46    51 1   
   100    46    97 1   
   101    47    48 1   
   102    47    52 1   
   103    47    98 1   
   104    48    99 1   
   105    48   100 1   
   106    48   101 1   
   107    49   102 1   
   108    50   103 1   
   109    51   104 1   
   110    83   105 1   
   111   106   107 1   
@<TRIPOS>SUBSTRUCTURE
     1 ACG         1 TEMP              0 ****  ****    0 ROOT
