@<TRIPOS>MOLECULE
ACG
  107   111     1     0     0
SMALL
abcg2


@<TRIPOS>ATOM
      1 C1A         11.6450    54.0550    23.3610 c6         1 ACG       0.242700
      2 C2A         11.5010    52.5680    23.7220 c6         1 ACG       0.185300
      3 C3A         12.8080    51.8430    23.4680 c6         1 ACG       0.126300
      4 C4A         13.1210    51.8710    21.9790 c6         1 ACG       0.183500
      5 C5A         12.9430    53.2370    21.3680 c2         1 ACG      -0.130400
      6 C6A         13.5820    53.4740    20.0250 c3         1 ACG       0.200800
      7 C7A         12.2230    54.1810    21.9760 c2         1 ACG      -0.239200
      8 O2A         11.0890    52.4290    25.0800 oh         1 ACG      -0.667000
      9 O3A         12.6800    50.5100    23.9490 oh         1 ACG      -0.750000
     10 O4A         14.4690    51.4040    21.8050 os         1 ACG      -0.494000
     11 O6A         13.2410    52.4720    19.0600 oh         1 ACG      -0.672000
     12 C1B         12.1670    58.1270    26.9170 c6         1 ACG       0.389300
     13 C2B         11.3380    56.8950    27.2680 c6         1 ACG       0.150300
     14 C3B         11.8650    55.6790    26.5330 c6         1 ACG       0.146300
     15 C4B         11.8970    55.9460    25.0230 c6         1 ACG       0.152500
     16 C5B         12.6790    57.2370    24.7380 c6         1 ACG       0.146300
     17 C6B         12.6140    57.6910    23.2950 c3         1 ACG      -0.090100
     18 N4B         12.4540    54.7880    24.3360 n7         1 ACG      -0.934400
     19 O2B         11.3510    56.7210    28.6860 oh         1 ACG      -0.741000
     20 O3B         11.0150    54.5890    26.8600 oh         1 ACG      -0.697000
     21 O5B         12.1510    58.3260    25.5240 os         1 ACG      -0.468000
     22 C1C         16.2980    59.9700    29.6850 c6         1 ACG       0.388300
     23 C2C         14.9350    59.7330    30.3370 c6         1 ACG       0.152300
     24 C3C         14.1730    58.6590    29.5850 c6         1 ACG       0.123300
     25 C4C         14.0660    59.0460    28.1150 c6         1 ACG       0.128300
     26 C5C         15.4530    59.3290    27.5340 c6         1 ACG       0.162300
     27 C6C         15.4200    59.8260    26.1070 c3         1 ACG       0.168600
     28 O2C         15.1320    59.3890    31.7060 oh         1 ACG      -0.737000
     29 O3C         12.8980    58.5300    30.2000 oh         1 ACG      -0.752000
     30 O4C         13.4760    57.9600    27.4060 os         1 ACG      -0.494000
     31 O5C         16.1210    60.3210    28.3300 os         1 ACG      -0.454000
     32 C1D         20.8790    57.6350    31.0220 c6         1 ACG       0.382300
     33 C2D         19.9890    58.2630    32.0910 c6         1 ACG       0.163300
     34 C3D         18.5390    58.2740    31.6370 c6         1 ACG       0.126300
     35 C4D         18.4250    58.9620    30.2830 c6         1 ACG       0.127300
     36 C5D         19.3840    58.3340    29.2710 c6         1 ACG       0.163300
     37 C6D         19.4140    59.0550    27.9430 c3         1 ACG       0.167600
     38 O2D         20.1600    57.5660    33.3160 oh         1 ACG      -0.709000
     39 O3D         17.7850    58.9520    32.6340 oh         1 ACG      -0.752000
     40 O4D         17.0820    58.8140    29.8240 os         1 ACG      -0.496000
     41 O5D         20.7190    58.3370    29.8020 os         1 ACG      -0.476000
     42 O6D         19.7370    60.4310    28.1430 oh         1 ACG      -0.717000
     43 C1E         14.6560    50.1930    21.1270 c6         1 ACG       0.384300
     44 C2E         15.6150    49.3040    21.9150 c6         1 ACG       0.157300
     45 C3E         17.0080    49.9000    21.9370 c6         1 ACG       0.135300
     46 C4E         17.4800    50.1560    20.5140 c6         1 ACG       0.114300
     47 C5E         16.4670    51.0280    19.7640 c6         1 ACG       0.140300
     48 C6E         16.8000    51.2140    18.3000 c3         1 ACG      -0.095100
     49 O2E         15.0820    49.1310    23.2250 oh         1 ACG      -0.736000
     50 O3E         17.8470    48.9720    22.6190 oh         1 ACG      -0.673000
     51 O4E         18.7440    50.8110    20.6120 oh         1 ACG      -0.726000
     52 O5E         15.1570    50.4120    19.8200 os         1 ACG      -0.483000
     53 H1A         10.6430    54.4910    23.3700 h1         1 ACG       0.071700
     54 H2A         10.7290    52.1360    23.0730 h1         1 ACG       0.051700
     55 H3A         13.6150    52.3550    24.0040 h1         1 ACG       0.065700
     56 H4A         12.4450    51.1720    21.4760 h1         1 ACG       0.070700
     57 H6A1        13.2440    54.4310    19.6290 h1         1 ACG       0.049700
     58 H6A2        14.6690    53.5240    20.1370 h1         1 ACG       0.049700
     59 H7A         12.0780    55.1360    21.4830 ha         1 ACG       0.183000
     60 HOA2        11.3370    51.5370    25.3640 ho         1 ACG       0.474000
     61 HOA3        13.5380    50.0590    23.8410 ho         1 ACG       0.547000
     62 HOA6        13.8540    51.7250    19.1670 ho         1 ACG       0.461000
     63 H1B         11.7160    59.0230    27.3470 h2         1 ACG       0.091700
     64 H2B         10.3120    57.0860    26.9360 h1         1 ACG       0.062700
     65 H3B         12.8880    55.4720    26.8700 h1         1 ACG       0.058700
     66 H4B         10.8650    56.0940    24.6910 h1         1 ACG       0.064700
     67 H5B         13.7250    57.0790    25.0260 h1         1 ACG       0.050700
     68 H6B1        13.1530    58.6320    23.1800 hc         1 ACG       0.045367
     69 H6B2        13.0730    56.9530    22.6390 hc         1 ACG       0.045367
     70 H6B3        11.5770    57.8380    22.9860 hc         1 ACG       0.045367
     71 HN4         13.3980    54.9420    24.0120 hn         1 ACG       0.441000
     72 HOB2        11.0270    55.8310    28.8800 ho         1 ACG       0.540000
     73 HOB3        11.2230    53.8410    26.2640 ho         1 ACG       0.498000
     74 H1C         16.7940    60.8240    30.1470 h2         1 ACG       0.093700
     75 H2C         14.3750    60.6720    30.2740 h1         1 ACG       0.066700
     76 H3C         14.7210    57.7130    29.6540 h1         1 ACG       0.066700
     77 H4C         13.4450    59.9390    28.0170 h1         1 ACG       0.079700
     78 H5C         16.0340    58.4010    27.5450 h1         1 ACG       0.062700
     79 H6C1        16.4470    60.0380    25.7900 h1         1 ACG       0.032700
     80 H6C2        15.0200    59.0290    25.4770 h1         1 ACG       0.032700
     81 HOC2        14.3050    59.0140    32.0380 ho         1 ACG       0.537000
     82 HOC3        12.4140    57.8050    29.7600 ho         1 ACG       0.550000
     83 HOC6        14.4490    61.1800    25.0840 ho         1 ACG       0.503000
     84 H1D         21.9310    57.7650    31.2820 h2         1 ACG       0.078700
     85 H2D         20.3190    59.3020    32.2030 h1         1 ACG       0.055700
     86 H3D         18.1850    57.2420    31.5340 h1         1 ACG       0.068700
     87 H4D         18.6650    60.0210    30.3960 h1         1 ACG       0.078700
     88 H5D         19.0690    57.3030    29.0810 h1         1 ACG       0.061700
     89 H6D1        20.1590    58.5720    27.3020 h1         1 ACG       0.033700
     90 H6D2        18.4340    58.9530    27.4730 h1         1 ACG       0.033700
     91 HOD2        19.5260    57.9380    33.9440 ho         1 ACG       0.524000
     92 HOD3        16.8490    58.9700    32.3580 ho         1 ACG       0.547000
     93 HOD6        19.5760    60.9000    27.3170 ho         1 ACG       0.503000
     94 H1E         13.7030    49.6800    20.9890 h2         1 ACG       0.091700
     95 H2E         15.6570    48.3360    21.4050 h1         1 ACG       0.065700
     96 H3E         16.9880    50.8520    22.4770 h1         1 ACG       0.072700
     97 H4E         17.5870    49.1970    19.9950 h1         1 ACG       0.057700
     98 H5E         16.4200    52.0000    20.2650 h1         1 ACG       0.065700
     99 H6E1        16.0540    51.8480    17.8200 hc         1 ACG       0.051700
    100 H6E2        17.7720    51.6960    18.1940 hc         1 ACG       0.051700
    101 H6E3        16.8260    50.2490    17.7900 hc         1 ACG       0.051700
    102 HOE2        15.7550    48.7000    23.7690 ho         1 ACG       0.539000
    103 HOE3        18.7270    49.3630    22.6880 ho         1 ACG       0.467000
    104 HOE4        19.2560    50.6330    19.8140 ho         1 ACG       0.514000
    105 O6C         14.6110    60.9980    26.0170 oh         1 ACG      -0.715000
    106 O1D         20.5620    56.2710    30.8970 oh         1 ACG      -0.723000
    107 HOD1        21.2470    55.8460    30.3640 ho         1 ACG       0.509000
@<TRIPOS>BOND
     1     1     2 1   
     2     1     7 1   
     3     1    18 1   
     4     1    53 1   
     5     2     3 1   
     6     2     8 1   
     7     2    54 1   
     8     3     4 1   
     9     3     9 1   
    10     3    55 1   
    11     4     5 1   
    12     4    10 1   
    13     4    56 1   
    14     5     6 1   
    15     5     7 2   
    16     6    11 1   
    17     6    57 1   
    18     6    58 1   
    19     7    59 1   
    20     8    60 1   
    21     9    61 1   
    22    10    43 1   
    23    11    62 1   
    24    12    13 1   
    25    12    21 1   
    26    12    30 1   
    27    12    63 1   
    28    13    14 1   
    29    13    19 1   
    30    13    64 1   
    31    14    15 1   
    32    14    20 1   
    33    14    65 1   
    34    15    16 1   
    35    15    18 1   
    36    15    66 1   
    37    16    17 1   
    38    16    21 1   
    39    16    67 1   
    40    17    68 1   
    41    17    69 1   
    42    17    70 1   
    43    18    71 1   
    44    19    72 1   
    45    20    73 1   
    46    22    23 1   
    47    22    31 1   
    48    22    40 1   
    49    22    74 1   
    50    23    24 1   
    51    23    28 1   
    52    23    75 1   
    53    24    25 1   
    54    24    29 1   
    55    24    76 1   
    56    25    26 1   
    57    25    30 1   
    58    25    77 1   
    59    26    27 1   
    60    26    31 1   
    61    26    78 1   
    62    27    79 1   
    63    27    80 1   
    64    27   105 1   
    65    28    81 1   
    66    29    82 1   
    67    32    33 1   
    68    32    41 1   
    69    32    84 1   
    70    32   106 1   
    71    33    34 1   
    72    33    38 1   
    73    33    85 1   
    74    34    35 1   
    75    34    39 1   
    76    34    86 1   
    77    35    36 1   
    78    35    40 1   
    79    35    87 1   
    80    36    37 1   
    81    36    41 1   
    82    36    88 1   
    83    37    42 1   
    84    37    89 1   
    85    37    90 1   
    86    38    91 1   
    87    39    92 1   
    88    42    93 1   
    89    43    44 1   
    90    43    52 1   
    91    43    94 1   
    92    44    45 1   
    93    44    49 1   
    94    44    95 1   
    95    45    46 1   
    96    45    50 1   
    97    45    96 1   
    98    46    47 1   
    99    46    51 1   
   100    46    97 1   
   101    47    48 1   
   102    47    52 1   
   103    47    98 1   
   104    48    99 1   
   105    48   100 1   
   106    48   101 1   
   107    49   102 1   
   108    50   103 1   
   109    51   104 1   
   110    83   105 1   
   111   106   107 1   
@<TRIPOS>SUBSTRUCTURE
     1 ACG         1 TEMP              0 ****  ****    0 ROOT
