@<TRIPOS>MOLECULE
ACH
   26    25     1     0     0
SMALL
abcg2


@<TRIPOS>ATOM
      1 N1          -1.9170     0.1400    -0.1400 n4         1 ACH      -0.496000
      2 C2          -1.0580    -0.7040     0.7650 c3         1 ACH       0.094600
      3 C3           0.3270    -1.0470     0.2730 c3         1 ACH       0.145600
      4 O4           1.1780     0.0790     0.4570 os         1 ACH      -0.481100
      5 C5           2.4610    -0.0480     0.1080 c          1 ACH       0.594100
      6 O7           2.9170    -1.0660    -0.3430 o          1 ACH      -0.443000
      7 C6           3.2190     1.2210     0.3530 c3         1 ACH      -0.154100
      8 C8          -2.2050    -0.5750    -1.4150 c3         1 ACH       0.076900
      9 C9          -3.2040     0.3820     0.5750 c3         1 ACH       0.076900
     10 C10         -1.2900     1.4580    -0.4470 c3         1 ACH       0.076900
     11 H21         -1.6060    -1.6330     0.9180 hx         1 ACH       0.105200
     12 H22         -1.0040    -0.1890     1.7240 hx         1 ACH       0.105200
     13 H31          0.3330    -1.3810    -0.7660 h1         1 ACH       0.084200
     14 H32          0.6710    -1.8860     0.8810 h1         1 ACH       0.084200
     15 H61          4.2640     1.0950     0.0850 hc         1 ACH       0.082700
     16 H62          2.7950     2.0350    -0.2360 hc         1 ACH       0.082700
     17 H63          3.1490     1.5100     1.4010 hc         1 ACH       0.082700
     18 H81         -2.6730    -1.5300    -1.1930 hx         1 ACH       0.098256
     19 H82         -2.8750     0.0360    -2.0130 hx         1 ACH       0.098256
     20 H83         -1.2830    -0.7350    -1.9660 hx         1 ACH       0.098256
     21 H91         -3.0070     0.9490     1.4800 hx         1 ACH       0.098256
     22 H92         -3.8710     0.9440    -0.0740 hx         1 ACH       0.098256
     23 H93         -3.6560    -0.5720     0.8320 hx         1 ACH       0.098256
     24 H101        -0.4200     1.3190    -1.0810 hx         1 ACH       0.098256
     25 H102        -2.0190     2.0670    -0.9730 hx         1 ACH       0.098256
     26 H103        -1.0020     1.9460     0.4800 hx         1 ACH       0.098256
@<TRIPOS>BOND
     1     1     2 1   
     2     1     8 1   
     3     1     9 1   
     4     1    10 1   
     5     2     3 1   
     6     2    11 1   
     7     2    12 1   
     8     3     4 1   
     9     3    13 1   
    10     3    14 1   
    11     4     5 1   
    12     5     6 2   
    13     5     7 1   
    14     7    15 1   
    15     7    16 1   
    16     7    17 1   
    17     8    18 1   
    18     8    19 1   
    19     8    20 1   
    20     9    21 1   
    21     9    22 1   
    22     9    23 1   
    23    10    24 1   
    24    10    25 1   
    25    10    26 1   
@<TRIPOS>SUBSTRUCTURE
     1 ACH         1 TEMP              0 ****  ****    0 ROOT
