@<TRIPOS>MOLECULE
ACH
   26    25     1     0     0
SMALL
No Charge or Current Charge


@<TRIPOS>ATOM
      1 N1          -1.9340     0.1650    -0.0990 n4         1 ACH      -0.496000
      2 C2          -1.0940    -0.7320     0.8430 c3         1 ACH       0.094600
      3 C3           0.3380    -1.1430     0.4220 c3         1 ACH       0.145600
      4 O4           1.1750     0.0310     0.4160 os         1 ACH      -0.481100
      5 C5           2.4900    -0.1170     0.0640 c          1 ACH       0.594100
      6 O7           3.0110    -1.1780    -0.2480 o          1 ACH      -0.443000
      7 C6           3.2290     1.2110     0.1010 c3         1 ACH      -0.154100
      8 C8          -2.0700    -0.4860    -1.4850 c3         1 ACH       0.076900
      9 C9          -3.3350     0.3370     0.5060 c3         1 ACH       0.076900
     10 C10         -1.2910     1.5530    -0.2480 c3         1 ACH       0.076900
     11 H21         -1.6650    -1.6510     0.9960 hx         1 ACH       0.105200
     12 H22         -1.0280    -0.2250     1.8080 hx         1 ACH       0.105200
     13 H31          0.3110    -1.6180    -0.5670 h1         1 ACH       0.084200
     14 H32          0.7180    -1.8820     1.1400 h1         1 ACH       0.084200
     15 H61          4.2830     1.1140    -0.1810 hc         1 ACH       0.082700
     16 H62          2.6980     1.9250    -0.5370 hc         1 ACH       0.082700
     17 H63          3.1080     1.6520     1.0950 hc         1 ACH       0.082700
     18 H81         -2.5220    -1.4740    -1.3780 hx         1 ACH       0.098256
     19 H82         -2.7030     0.1400    -2.1160 hx         1 ACH       0.098256
     20 H83         -1.0820    -0.5800    -1.9400 hx         1 ACH       0.098256
     21 H91         -3.2490     0.8070     1.4880 hx         1 ACH       0.098256
     22 H92         -3.9370     0.9690    -0.1510 hx         1 ACH       0.098256
     23 H93         -3.8090    -0.6410     0.6070 hx         1 ACH       0.098256
     24 H101        -0.3140     1.4490    -0.7230 hx         1 ACH       0.098256
     25 H102        -1.9320     2.1840    -0.8670 hx         1 ACH       0.098256
     26 H103        -1.1720     2.0030     0.7390 hx         1 ACH       0.098256
@<TRIPOS>BOND
     1     1     2 1   
     2     1     8 1   
     3     1     9 1   
     4     1    10 1   
     5     2     3 1   
     6     2    11 1   
     7     2    12 1   
     8     3     4 1   
     9     3    13 1   
    10     3    14 1   
    11     4     5 1   
    12     5     6 2   
    13     5     7 1   
    14     7    15 1   
    15     7    16 1   
    16     7    17 1   
    17     8    18 1   
    18     8    19 1   
    19     8    20 1   
    20     9    21 1   
    21     9    22 1   
    22     9    23 1   
    23    10    24 1   
    24    10    25 1   
    25    10    26 1   
@<TRIPOS>SUBSTRUCTURE
     1 ACH         1 TEMP              0 ****  ****    0 ROOT
