@<TRIPOS>MOLECULE
ACI
   25    25     1     0     0
SMALL
bcc


@<TRIPOS>ATOM
      1 C1          -0.6820     1.6050    -0.1410 c6         1 ACI       0.156700
      2 C2          -1.5060     0.3900    -0.5790 c6         1 ACI       0.161100
      3 C3          -1.0580    -0.8320     0.1990 c6         1 ACI       0.155100
      4 C4           0.3810    -1.1620    -0.1860 c6         1 ACI       0.145300
      5 C5           1.2780     0.0520    -0.1570 c2         1 ACI      -0.133400
      6 C6           2.7470    -0.2480    -0.1860 c3         1 ACI       0.179600
      7 C7           0.7850     1.2880    -0.1640 c2         1 ACI      -0.133200
      8 N1          -1.0670     2.0230     1.2050 n8         1 ACI      -0.871800
      9 O2          -2.8850     0.5860    -0.3730 oh         1 ACI      -0.567800
     10 O3          -1.9110    -1.9130    -0.0930 oh         1 ACI      -0.583800
     11 O4           0.8370    -2.1750     0.6960 oh         1 ACI      -0.598800
     12 O6           3.4950     0.9230    -0.3860 oh         1 ACI      -0.597800
     13 H1          -0.8590     2.4010    -0.8820 h1         1 ACI       0.019700
     14 H2          -1.2970     0.2170    -1.6460 h1         1 ACI       0.034700
     15 H3          -1.0820    -0.5900     1.2720 h1         1 ACI       0.084700
     16 H4           0.3690    -1.5470    -1.2160 h1         1 ACI       0.043700
     17 H61          3.0230    -0.7430     0.7540 h1         1 ACI       0.027200
     18 H62          2.9330    -0.9860    -0.9820 h1         1 ACI       0.027200
     19 H7           1.4560     2.1380    -0.1700 ha         1 ACI       0.145000
     20 HN11        -0.4730     2.7910     1.4950 hn         1 ACI       0.343800
     21 HN12        -2.0070     2.3980     1.1830 hn         1 ACI       0.343800
     22 HO2         -3.1730     1.2950    -0.9570 ho         1 ACI       0.395000
     23 HO3         -1.5830    -2.6770     0.3930 ho         1 ACI       0.410000
     24 HO4          1.3390    -2.8250     0.1970 ho         1 ACI       0.404000
     25 HO6          4.4250     0.6990    -0.2970 ho         1 ACI       0.408000
@<TRIPOS>BOND
     1     1     2 1   
     2     1     7 1   
     3     1     8 1   
     4     1    13 1   
     5     2     3 1   
     6     2     9 1   
     7     2    14 1   
     8     3     4 1   
     9     3    10 1   
    10     3    15 1   
    11     4     5 1   
    12     4    11 1   
    13     4    16 1   
    14     5     6 1   
    15     5     7 2   
    16     6    12 1   
    17     6    17 1   
    18     6    18 1   
    19     7    19 1   
    20     8    20 1   
    21     8    21 1   
    22     9    22 1   
    23    10    23 1   
    24    11    24 1   
    25    12    25 1   
@<TRIPOS>SUBSTRUCTURE
     1 ACI         1 TEMP              0 ****  ****    0 ROOT
