@<TRIPOS>MOLECULE
ACI
   25    25     1     0     0
SMALL
No Charge or Current Charge


@<TRIPOS>ATOM
      1 C1          -0.6620     1.6370    -0.0280 c6         1 ACI       0.156700
      2 C2          -1.5420     0.4600    -0.5820 c6         1 ACI       0.184300
      3 C3          -1.1230    -0.8670     0.1270 c6         1 ACI       0.178300
      4 C4           0.3760    -1.1950    -0.1790 c6         1 ACI       0.168500
      5 C5           1.3010     0.0250    -0.0370 c2         1 ACI      -0.133400
      6 C6           2.8000    -0.2580    -0.0480 c3         1 ACI       0.202800
      7 C7           0.8120     1.2820     0.0220 c2         1 ACI      -0.183200
      8 N1          -1.0930     2.0840     1.3150 n8         1 ACI      -0.982200
      9 O2          -2.9520     0.7550    -0.4010 oh         1 ACI      -0.690000
     10 O3          -1.9410    -1.9920    -0.2700 oh         1 ACI      -0.646000
     11 O4           0.8010    -2.2840     0.6640 oh         1 ACI      -0.721000
     12 O6           3.4570     0.5820    -1.0050 oh         1 ACI      -0.660000
     13 H1          -0.7950     2.4990    -0.6990 h1         1 ACI       0.019700
     14 H2          -1.3240     0.3480    -1.6550 h1         1 ACI       0.034700
     15 H3          -1.2140    -0.7050     1.2120 h1         1 ACI       0.084700
     16 H4           0.4290    -1.5100    -1.2330 h1         1 ACI       0.043700
     17 H61          3.2060    -0.0770     0.9560 h1         1 ACI       0.027200
     18 H62          2.9950    -1.3090    -0.2960 h1         1 ACI       0.027200
     19 H7           1.4930     2.1310     0.0900 ha         1 ACI       0.195000
     20 HN11        -0.7430     3.0350     1.4790 hn         1 ACI       0.399000
     21 HN12        -2.1140     2.1950     1.2900 hn         1 ACI       0.399000
     22 HO2         -3.2020     1.3810    -1.1170 ho         1 ACI       0.494000
     23 HO3         -1.4800    -2.7800     0.0960 ho         1 ACI       0.449000
     24 HO4          1.5840    -2.6970     0.2330 ho         1 ACI       0.503000
     25 HO6          4.4150     0.3700    -0.9570 ho         1 ACI       0.447000
@<TRIPOS>BOND
     1     1     2 1   
     2     1     7 1   
     3     1     8 1   
     4     1    13 1   
     5     2     3 1   
     6     2     9 1   
     7     2    14 1   
     8     3     4 1   
     9     3    10 1   
    10     3    15 1   
    11     4     5 1   
    12     4    11 1   
    13     4    16 1   
    14     5     6 1   
    15     5     7 2   
    16     6    12 1   
    17     6    17 1   
    18     6    18 1   
    19     7    19 1   
    20     8    20 1   
    21     8    21 1   
    22     9    22 1   
    23    10    23 1   
    24    11    24 1   
    25    12    25 1   
@<TRIPOS>SUBSTRUCTURE
     1 ACI         1 TEMP              0 ****  ****    0 ROOT
