@<TRIPOS>MOLECULE
ACJ
   30    31     1     0     0
SMALL
abcg2


@<TRIPOS>ATOM
      1 O3           4.8420     0.9840    -1.6000 o          1 ACJ      -0.685000
      2 C11          4.0560     0.0290    -1.7100 c          1 ACJ       0.718600
      3 O2           3.8250    -0.6750    -2.7040 o          1 ACJ      -0.685000
      4 C9           1.9560    -0.8140    -0.5860 ca         1 ACJ      -0.089000
      5 C14          3.6590     0.0410     0.8220 ca         1 ACJ      -0.129200
      6 C8           1.1560    -0.9920     0.5290 ca         1 ACJ       0.069100
      7 N1           5.0180     0.5180     1.0480 no         1 ACJ       0.723200
      8 C13          2.8660    -0.1250     1.9440 ca         1 ACJ      -0.088000
      9 O5           5.1500     1.6060     1.5540 o          1 ACJ      -0.402000
     10 C12          1.5930    -0.6500     1.7980 ca         1 ACJ      -0.146000
     11 O1          -0.0840    -1.5650     0.3780 os         1 ACJ      -0.230200
     12 C7          -1.1640    -0.7770     0.2140 ca         1 ACJ       0.196100
     13 O4           5.9210    -0.2330     0.7790 o          1 ACJ      -0.402000
     14 C6          -1.1200     0.6090     0.1340 ca         1 ACJ      -0.184000
     15 C10          3.2320    -0.2810    -0.4600 ca         1 ACJ      -0.076600
     16 C4          -2.3980    -1.4210     0.1190 ca         1 ACJ       0.062000
     17 C5          -2.2880     1.3340    -0.0370 ca         1 ACJ      -0.021000
     18 C2          -3.5110     0.6860    -0.1270 ca         1 ACJ      -0.244300
     19 CL1         -2.4570    -3.1410     0.2220 cl         1 ACJ      -0.178000
     20 C3          -3.5630    -0.7010    -0.0510 ca         1 ACJ      -0.029000
     21 C1          -4.7660     1.4630    -0.3640 c3         1 ACJ       0.363300
     22 F1          -5.0210     1.6040    -1.6740 f          1 ACJ      -0.118333
     23 F2          -5.8370     0.8660     0.1720 f          1 ACJ      -0.118333
     24 F3          -4.7020     2.6960     0.1480 f          1 ACJ      -0.118333
     25 H9           1.5870    -1.0830    -1.5680 ha         1 ACJ       0.156000
     26 H13          3.2350     0.1290     2.9290 ha         1 ACJ       0.123000
     27 H12          0.9600    -0.7980     2.6630 ha         1 ACJ       0.118000
     28 H6          -0.1790     1.1380     0.2050 ha         1 ACJ       0.151000
     29 H5          -2.2180     2.4110    -0.0960 ha         1 ACJ       0.130000
     30 H3          -4.5020    -1.2340    -0.1210 ha         1 ACJ       0.136000
@<TRIPOS>BOND
     1     1     2 1   
     2     2     3 1   
     3     2    15 1   
     4     4     6 ar  
     5     4    15 ar  
     6     4    25 1   
     7     5     7 1   
     8     5     8 ar  
     9     5    15 ar  
    10     6    10 ar  
    11     6    11 1   
    12     7     9 1   
    13     7    13 1   
    14     8    10 ar  
    15     8    26 1   
    16    10    27 1   
    17    11    12 1   
    18    12    14 ar  
    19    12    16 ar  
    20    14    17 ar  
    21    14    28 1   
    22    16    19 1   
    23    16    20 ar  
    24    17    18 ar  
    25    17    29 1   
    26    18    20 ar  
    27    18    21 1   
    28    20    30 1   
    29    21    22 1   
    30    21    23 1   
    31    21    24 1   
@<TRIPOS>SUBSTRUCTURE
     1 ACJ         1 TEMP              0 ****  ****    0 ROOT
