@<TRIPOS>MOLECULE
ACJ
   30    31     1     0     0
SMALL
No Charge or Current Charge


@<TRIPOS>ATOM
      1 O3           5.4900     0.3640    -1.5450 o          1 ACJ      -0.685000
      2 C11          4.7960    -0.6260    -1.3600 c          1 ACJ       0.718600
      3 O2           4.9630    -1.6880    -1.9440 o          1 ACJ      -0.685000
      4 C9           2.3390    -0.9440    -0.9010 ca         1 ACJ      -0.089000
      5 C14          3.6930     0.0870     0.8520 ca         1 ACJ      -0.129200
      6 C8           1.1890    -0.7940    -0.1110 ca         1 ACJ       0.069100
      7 N1           5.0080     0.5230     1.4100 no         1 ACJ       0.723200
      8 C13          2.5290     0.2300     1.6420 ca         1 ACJ      -0.088000
      9 O5           5.0330     1.5780     2.0600 o          1 ACJ      -0.402000
     10 C12          1.2850    -0.2110     1.1650 ca         1 ACJ      -0.146000
     11 O1          -0.0160    -1.2490    -0.5970 os         1 ACJ      -0.230200
     12 C7          -1.2130    -0.6080    -0.3540 ca         1 ACJ       0.196100
     13 O4           5.9330    -0.3020     1.4090 o          1 ACJ      -0.402000
     14 C6          -1.2960     0.7960    -0.4090 ca         1 ACJ      -0.184000
     15 C10          3.5980    -0.4980    -0.4420 ca         1 ACJ      -0.076600
     16 C4          -2.3700    -1.3650    -0.0860 ca         1 ACJ       0.062000
     17 C5          -2.5200     1.4440    -0.1750 ca         1 ACJ      -0.021000
     18 C2          -3.6800     0.6930     0.1170 ca         1 ACJ      -0.244300
     19 Cl1         -2.3030    -3.1280    -0.0340 cl         1 ACJ      -0.178000
     20 C3          -3.5950    -0.7170     0.1490 ca         1 ACJ      -0.029000
     21 C1          -5.0200     1.3950     0.3620 c3         1 ACJ       0.363300
     22 F1          -5.7070     1.5570    -0.7900 f          1 ACJ      -0.118333
     23 F2          -5.8180     0.7000     1.2040 f          1 ACJ      -0.118333
     24 F3          -4.8640     2.6240     0.9060 f          1 ACJ      -0.118333
     25 H9           2.2500    -1.3950    -1.8870 ha         1 ACJ       0.156000
     26 H13          2.5920     0.6690     2.6370 ha         1 ACJ       0.123000
     27 H12          0.4030    -0.1080     1.7930 ha         1 ACJ       0.118000
     28 H6          -0.4120     1.3860    -0.6400 ha         1 ACJ       0.151000
     29 H5          -2.5640     2.5310    -0.2260 ha         1 ACJ       0.130000
     30 H3          -4.4780    -1.3200     0.3530 ha         1 ACJ       0.136000
@<TRIPOS>BOND
     1     1     2 1   
     2     2     3 1   
     3     2    15 1   
     4     4     6 ar  
     5     4    15 ar  
     6     4    25 1   
     7     5     7 1   
     8     5     8 ar  
     9     5    15 ar  
    10     6    10 ar  
    11     6    11 1   
    12     7     9 1   
    13     7    13 1   
    14     8    10 ar  
    15     8    26 1   
    16    10    27 1   
    17    11    12 1   
    18    12    14 ar  
    19    12    16 ar  
    20    14    17 ar  
    21    14    28 1   
    22    16    19 1   
    23    16    20 ar  
    24    17    18 ar  
    25    17    29 1   
    26    18    20 ar  
    27    18    21 1   
    28    20    30 1   
    29    21    22 1   
    30    21    23 1   
    31    21    24 1   
@<TRIPOS>SUBSTRUCTURE
     1 ACJ         1 TEMP              0 ****  ****    0 ROOT
