@<TRIPOS>MOLECULE
ACK
   34    37     1     0     0
SMALL
No Charge or Current Charge


@<TRIPOS>ATOM
      1 O3P         -3.7310     2.7560    -0.9730 oh         1 ACK      -0.745400
      2 P           -2.8460     1.6700    -0.2370 p5         1 ACK       1.332200
      3 O1P         -2.5550     1.8450     1.2090 o          1 ACK      -0.530000
      4 O2          -1.6090     1.5280    -1.2440 os         1 ACK      -0.536400
      5 O3          -3.5640     0.3190    -0.7060 os         1 ACK      -0.550400
      6 C3          -2.5480    -0.6870    -0.9740 c5         1 ACK       0.128300
      7 C4          -2.1750    -1.4340     0.3540 c5         1 ACK       0.153300
      8 O4          -0.7350    -1.5150     0.3160 os         1 ACK      -0.434000
      9 C5          -2.8070    -2.8460     0.4910 c3         1 ACK       0.175600
     10 O5          -2.5870    -3.3940     1.8050 oh         1 ACK      -0.701000
     11 C1          -0.2510    -0.2540    -0.1680 c5         1 ACK       0.299300
     12 N9           1.1720    -0.3750    -0.4780 na         1 ACK      -0.283300
     13 C8           1.7210    -0.8210    -1.6860 cc         1 ACK       0.414700
     14 N7           3.0660    -0.7750    -1.6640 nd         1 ACK      -0.547100
     15 C9           3.3490    -0.2810    -0.3860 ca         1 ACK      -0.100600
     16 C6           4.5940    -0.0120     0.2180 ca         1 ACK       0.453900
     17 N6           5.7770    -0.2190    -0.4190 nv         1 ACK      -1.062900
     18 N1           4.6700     0.4770     1.4660 nb         1 ACK      -0.300000
     19 C2           3.4880     0.6860     2.0960 ca         1 ACK       0.188900
     20 N3           2.2500     0.4550     1.5960 nb         1 ACK      -0.217000
     21 C7           2.2110    -0.0340     0.3400 ca         1 ACK       0.146500
     22 C10         -1.2370     0.1240    -1.3330 c5         1 ACK       0.115300
     23 H1          -3.7340     2.2710    -1.8180 ho         1 ACK       0.497000
     24 H2          -2.8670    -1.3600    -1.7820 h1         1 ACK       0.093700
     25 H3          -2.4680    -0.8480     1.2360 h1         1 ACK       0.087700
     26 H4          -3.8850    -2.7640     0.2960 h1         1 ACK       0.031700
     27 H5          -2.3790    -3.5040    -0.2790 h1         1 ACK       0.031700
     28 H6          -2.9580    -4.3080     1.8020 ho         1 ACK       0.511000
     29 H7          -0.3190     0.4890     0.6380 h2         1 ACK       0.114700
     30 H8           1.1120    -1.1630    -2.5140 h5         1 ACK       0.066800
     31 H9           5.7330    -0.3720    -1.4240 hn         1 ACK       0.507500
     32 H10          6.6020     0.2600    -0.0680 hn         1 ACK       0.507500
     33 H11          3.5380     1.0810     3.1090 h5         1 ACK       0.050100
     34 H12         -0.8600    -0.1130    -2.3350 h1         1 ACK       0.100700
@<TRIPOS>BOND
     1     1     2 1   
     2     1    23 1   
     3     2     3 2   
     4     2     4 1   
     5     2     5 1   
     6     4    22 1   
     7     5     6 1   
     8     6     7 1   
     9     6    22 1   
    10     6    24 1   
    11     7     8 1   
    12     7     9 1   
    13     7    25 1   
    14     8    11 1   
    15     9    10 1   
    16     9    26 1   
    17     9    27 1   
    18    10    28 1   
    19    11    12 1   
    20    11    22 1   
    21    11    29 1   
    22    12    13 1   
    23    12    21 1   
    24    13    14 2   
    25    13    30 1   
    26    14    15 1   
    27    15    16 ar  
    28    15    21 ar  
    29    16    17 1   
    30    16    18 ar  
    31    17    31 1   
    32    17    32 1   
    33    18    19 ar  
    34    19    20 ar  
    35    19    33 1   
    36    20    21 ar  
    37    22    34 1   
@<TRIPOS>SUBSTRUCTURE
     1 ACK         1 TEMP              0 ****  ****    0 ROOT
