@<TRIPOS>MOLECULE
ACK
   34    37     1     0     0
SMALL
abcg2


@<TRIPOS>ATOM
      1 O3P         -3.5510     2.5380    -1.5890 oh         1 ACK      -0.745400
      2 P           -2.9080     1.8740    -0.2980 p5         1 ACK       1.332200
      3 O1P         -3.0790     2.6260     0.9540 o          1 ACK      -0.530000
      4 O2          -1.3910     1.5400    -0.7320 os         1 ACK      -0.536400
      5 O3          -3.4510     0.3600    -0.3050 os         1 ACK      -0.550400
      6 C3          -2.4760    -0.5950    -0.6900 c5         1 ACK       0.128300
      7 C4          -2.1420    -1.5790     0.4390 c5         1 ACK       0.153300
      8 O4          -0.7290    -1.6960     0.4020 os         1 ACK      -0.434000
      9 C5          -2.7790    -2.9330     0.2530 c3         1 ACK       0.175600
     10 O5          -2.4540    -3.7420     1.3520 oh         1 ACK      -0.701000
     11 C1          -0.2110    -0.4250     0.1370 c5         1 ACK       0.299300
     12 N9           1.1510    -0.5600    -0.2750 na         1 ACK      -0.283300
     13 C8           1.6350    -1.3160    -1.3130 cc         1 ACK       0.414700
     14 N7           2.9270    -1.2640    -1.4230 nd         1 ACK      -0.547100
     15 C9           3.3270    -0.4340    -0.4070 ca         1 ACK      -0.100600
     16 C6           4.5890     0.0270     0.0140 ca         1 ACK       0.453900
     17 N6           5.7240    -0.3230    -0.5910 nv         1 ACK      -1.062900
     18 N1           4.6350     0.8440     1.0730 nb         1 ACK      -0.300000
     19 C2           3.5020     1.1850     1.6800 ca         1 ACK       0.188900
     20 N3           2.2670     0.8230     1.3770 nb         1 ACK      -0.217000
     21 C7           2.2400     0.0110     0.3250 ca         1 ACK       0.146500
     22 C10         -1.1520     0.1610    -0.9300 c5         1 ACK       0.115300
     23 H1          -3.9870     3.3850    -1.4200 ho         1 ACK       0.497000
     24 H2          -2.8210    -1.1030    -1.5920 h1         1 ACK       0.093700
     25 H3          -2.4600    -1.1430     1.3970 h1         1 ACK       0.087700
     26 H4          -3.8620    -2.7750     0.1600 h1         1 ACK       0.031700
     27 H5          -2.4360    -3.3620    -0.6970 h1         1 ACK       0.031700
     28 H6          -2.8650    -4.6020     1.2240 ho         1 ACK       0.511000
     29 H7          -0.2150     0.2200     1.0250 h2         1 ACK       0.114700
     30 H8           0.9800    -1.8900    -1.9510 h5         1 ACK       0.066800
     31 H9           5.7180    -0.8920    -1.4190 hn         1 ACK       0.507500
     32 H10          6.6000     0.0660    -0.2880 hn         1 ACK       0.507500
     33 H11          3.6100     1.8470     2.5320 h5         1 ACK       0.050100
     34 H12         -0.7680     0.0080    -1.9390 h1         1 ACK       0.100700
@<TRIPOS>BOND
     1     1     2 1   
     2     1    23 1   
     3     2     3 2   
     4     2     4 1   
     5     2     5 1   
     6     4    22 1   
     7     5     6 1   
     8     6     7 1   
     9     6    22 1   
    10     6    24 1   
    11     7     8 1   
    12     7     9 1   
    13     7    25 1   
    14     8    11 1   
    15     9    10 1   
    16     9    26 1   
    17     9    27 1   
    18    10    28 1   
    19    11    12 1   
    20    11    22 1   
    21    11    29 1   
    22    12    13 1   
    23    12    21 1   
    24    13    14 2   
    25    13    30 1   
    26    14    15 1   
    27    15    16 ar  
    28    15    21 ar  
    29    16    17 1   
    30    16    18 ar  
    31    17    31 1   
    32    17    32 1   
    33    18    19 ar  
    34    19    20 ar  
    35    19    33 1   
    36    20    21 ar  
    37    22    34 1   
@<TRIPOS>SUBSTRUCTURE
     1 ACK         1 TEMP              0 ****  ****    0 ROOT
