@<TRIPOS>MOLECULE
ACM
    9     8     1     0     0
SMALL
abcg2


@<TRIPOS>ATOM
      1 C1           0.1470     0.0330    -0.0530 c          1 ACM       0.604100
      2 O            1.3360     0.0780    -0.3350 o          1 ACM      -0.605100
      3 N           -0.8180    -0.0250    -0.9850 nt         1 ACM      -0.616000
      4 C2          -0.3560     0.0390     1.3710 c3         1 ACM      -0.183100
      5 HN1         -0.5850    -0.0260    -1.9650 hn         1 ACM       0.311500
      6 HN2         -1.7920    -0.0510    -0.7400 hn         1 ACM       0.311500
      7 H21          0.4770     0.0740     2.0680 hc         1 ACM       0.059367
      8 H22         -1.0000     0.9010     1.5480 hc         1 ACM       0.059367
      9 H23         -0.9490    -0.8540     1.5750 hc         1 ACM       0.059367
@<TRIPOS>BOND
     1     1     2 2   
     2     1     3 1   
     3     1     4 1   
     4     3     5 1   
     5     3     6 1   
     6     4     7 1   
     7     4     8 1   
     8     4     9 1   
@<TRIPOS>SUBSTRUCTURE
     1 ACM         1 TEMP              0 ****  ****    0 ROOT
