@<TRIPOS>MOLECULE
ACN
   10     9     1     0     0
SMALL
No Charge or Current Charge


@<TRIPOS>ATOM
      1 C            6.0630    38.2510    41.4960 c          1 ACN       0.571100
      2 O            5.5340    39.2960    41.8500 o          1 ACN      -0.520100
      3 C1           6.7010    37.2920    42.4990 c3         1 ACN      -0.204100
      4 C2           6.1200    37.8370    40.0260 c3         1 ACN      -0.204100
      5 H11          6.6250    37.6470    43.5330 hc         1 ACN       0.059533
      6 H12          6.2520    36.2990    42.3770 hc         1 ACN       0.059533
      7 H13          7.7410    37.1110    42.2060 hc         1 ACN       0.059533
      8 H21          5.6460    38.5680    39.3610 hc         1 ACN       0.059533
      9 H22          7.1640    37.6540    39.7490 hc         1 ACN       0.059533
     10 H23          5.6750    36.8420    39.9190 hc         1 ACN       0.059533
@<TRIPOS>BOND
     1     1     2 2   
     2     1     3 1   
     3     1     4 1   
     4     3     5 1   
     5     3     6 1   
     6     3     7 1   
     7     4     8 1   
     8     4     9 1   
     9     4    10 1   
@<TRIPOS>SUBSTRUCTURE
     1 ACN         1 TEMP              0 ****  ****    0 ROOT
