@<TRIPOS>MOLECULE
ACN
   10     9     1     0     0
SMALL
bcc


@<TRIPOS>ATOM
      1 C            6.0780    38.2420    41.4900 c          1 ACN       0.571100
      2 O            5.5790    39.2890    41.8380 o          1 ACN      -0.520100
      3 C1           6.6790    37.2730    42.4720 c3         1 ACN      -0.204100
      4 C2           6.1460    37.8260    40.0460 c3         1 ACN      -0.204100
      5 H11          6.6830    37.6750    43.4830 hc         1 ACN       0.059533
      6 H12          6.1100    36.3410    42.4630 hc         1 ACN       0.059533
      7 H13          7.6980    37.0170    42.1790 hc         1 ACN       0.059533
      8 H21          5.5610    38.4870    39.4100 hc         1 ACN       0.059533
      9 H22          7.1860    37.8470    39.7140 hc         1 ACN       0.059533
     10 H23          5.8010    36.7990    39.9210 hc         1 ACN       0.059533
@<TRIPOS>BOND
     1     1     2 2   
     2     1     3 1   
     3     1     4 1   
     4     3     5 1   
     5     3     6 1   
     6     3     7 1   
     7     4     8 1   
     8     4     9 1   
     9     4    10 1   
@<TRIPOS>SUBSTRUCTURE
     1 ACN         1 TEMP              0 ****  ****    0 ROOT
