@<TRIPOS>MOLECULE
ACP
   45    47     1     0     0
SMALL
abcg2


@<TRIPOS>ATOM
      1 PG           1.6100    -1.5530    -5.7530 p5         1 ACP       1.342500
      2 O1G          2.3690    -0.3230    -6.2620 o          1 ACP      -0.943833
      3 O2G          2.5120    -2.7770    -5.5250 o          1 ACP      -0.943833
      4 O3G          0.3460    -1.8830    -6.5530 o          1 ACP      -0.943833
      5 PB           0.3750     0.5870    -3.8650 p5         1 ACP       1.508400
      6 O1B         -0.6940     0.8830    -4.8830 o          1 ACP      -0.871500
      7 O2B          1.4720     1.5910    -3.6260 o          1 ACP      -0.871500
      8 C3B          1.0210    -1.0950    -4.0330 c3         1 ACP      -0.735400
      9 PA          -0.6040     1.5310    -1.2590 p5         1 ACP       1.458800
     10 O1A         -1.0950     2.8250    -1.8350 o          1 ACP      -0.875000
     11 O2A          0.5630     1.5530    -0.3090 o          1 ACP      -0.875000
     12 O3A         -0.4320     0.3860    -2.3850 os         1 ACP      -0.704800
     13 O5          -1.8740     0.7650    -0.5170 os         1 ACP      -0.546400
     14 C5          -2.2460     1.1690     0.7750 c3         1 ACP       0.239600
     15 C4          -2.4840    -0.0430     1.6490 c5         1 ACP       0.148300
     16 O4          -1.3050    -0.8420     1.7460 os         1 ACP      -0.375000
     17 C3          -2.8430     0.3310     3.0860 c5         1 ACP       0.075300
     18 O3          -4.2320     0.4640     3.2210 oh         1 ACP      -0.710000
     19 C2          -2.2580    -0.8380     3.8840 c5         1 ACP       0.084300
     20 O2          -3.0930    -1.9620     3.8130 oh         1 ACP      -0.712000
     21 C1          -1.0040    -1.1470     3.0680 c5         1 ACP       0.324300
     22 N9           0.1340    -0.3370     3.5020 na         1 ACP      -0.317300
     23 C8           0.8600     0.5600     2.7630 cc         1 ACP       0.475700
     24 N7           1.8680     1.0630     3.4200 nd         1 ACP      -0.579100
     25 C7           1.8170     0.4590     4.6470 ca         1 ACP      -0.077600
     26 C6           2.6190     0.5570     5.7980 ca         1 ACP       0.397900
     27 N6           3.6830     1.3610     5.8680 nv         1 ACP      -1.087900
     28 N1           2.3010    -0.2020     6.8530 nb         1 ACP      -0.331000
     29 C10          1.2500    -1.0140     6.7720 ca         1 ACP       0.099900
     30 N3           0.4240    -1.1910     5.7560 nb         1 ACP      -0.227000
     31 C9           0.7500    -0.4240     4.7160 ca         1 ACP       0.081500
     32 H3B1         1.8470    -1.1990    -3.3220 hc         1 ACP       0.026200
     33 H3B2         0.2560    -1.8120    -3.7180 hc         1 ACP       0.026200
     34 H5'1        -3.1790     1.7470     0.7470 h1         1 ACP       0.000700
     35 H5'2        -1.4910     1.8090     1.2440 h1         1 ACP       0.000700
     36 H4          -3.2820    -0.6560     1.2130 h1         1 ACP       0.079700
     37 H3          -2.3250     1.2550     3.3730 h1         1 ACP       0.057700
     38 HO3         -4.4160     0.9920     4.0040 ho         1 ACP       0.481000
     39 H2          -2.0260    -0.5680     4.9200 h1         1 ACP       0.055700
     40 HO2         -4.0060    -1.6480     3.8350 ho         1 ACP       0.504000
     41 H1          -0.7140    -2.1980     3.1550 h2         1 ACP       0.099700
     42 H8           0.6180     0.7980     1.7330 h5         1 ACP       0.184800
     43 HN61         4.1870     1.4580     6.7320 hn         1 ACP       0.487000
     44 HN62         3.9020     1.9920     5.1180 hn         1 ACP       0.487000
     45 H6           1.0500    -1.6060     7.6590 h5         1 ACP       0.004100
@<TRIPOS>BOND
     1     1     2 1   
     2     1     3 1   
     3     1     4 1   
     4     1     8 1   
     5     5     6 1   
     6     5     7 1   
     7     5     8 1   
     8     5    12 1   
     9     8    32 1   
    10     8    33 1   
    11     9    10 1   
    12     9    11 1   
    13     9    12 1   
    14     9    13 1   
    15    13    14 1   
    16    14    15 1   
    17    14    34 1   
    18    14    35 1   
    19    15    16 1   
    20    15    17 1   
    21    15    36 1   
    22    16    21 1   
    23    17    18 1   
    24    17    19 1   
    25    17    37 1   
    26    18    38 1   
    27    19    20 1   
    28    19    21 1   
    29    19    39 1   
    30    20    40 1   
    31    21    22 1   
    32    21    41 1   
    33    22    23 1   
    34    22    31 1   
    35    23    24 2   
    36    23    42 1   
    37    24    25 1   
    38    25    26 ar  
    39    25    31 ar  
    40    26    27 1   
    41    26    28 ar  
    42    27    43 1   
    43    27    44 1   
    44    28    29 ar  
    45    29    30 ar  
    46    29    45 1   
    47    30    31 ar  
@<TRIPOS>SUBSTRUCTURE
     1 ACP         1 TEMP              0 ****  ****    0 ROOT
