@<TRIPOS>MOLECULE
ACP
   45    47     1     0     0
SMALL
No Charge or Current Charge


@<TRIPOS>ATOM
      1 PG          -1.5300    -1.1240    -4.1160 p5         1 ACP       1.342500
      2 O1G         -1.4310    -0.7830    -5.5630 o          1 ACP      -0.943833
      3 O2G         -1.9090    -2.5620    -4.0180 o          1 ACP      -0.943833
      4 O3G         -2.5440    -0.2940    -3.4140 o          1 ACP      -0.943833
      5 PB           0.4080     0.6790    -3.0410 p5         1 ACP       1.508400
      6 O1B         -0.1100     1.6070    -4.0930 o          1 ACP      -0.871500
      7 O2B          1.8970     0.7410    -2.9120 o          1 ACP      -0.871500
      8 C3B          0.0890    -1.0440    -3.4020 c3         1 ACP      -0.735400
      9 PA           0.1410     1.9840    -0.7710 p5         1 ACP       1.458800
     10 O1A          0.2050     3.2780    -1.5140 o          1 ACP      -0.875000
     11 O2A          1.3930     1.7320     0.0060 o          1 ACP      -0.875000
     12 O3A         -0.3330     0.7640    -1.6480 os         1 ACP      -0.704800
     13 O5          -1.1350     2.0390     0.2190 os         1 ACP      -0.546400
     14 C5          -1.2410     1.2420     1.4120 c3         1 ACP       0.239600
     15 C4          -1.3100    -0.2930     1.1070 c5         1 ACP       0.148300
     16 O4           0.0120    -0.8790     0.9890 os         1 ACP      -0.375000
     17 C3          -2.0210    -1.1190     2.2480 c5         1 ACP       0.075300
     18 O3          -3.2090    -1.8100     1.8020 oh         1 ACP      -0.710000
     19 C2          -0.9370    -2.1560     2.7030 c5         1 ACP       0.084300
     20 O2          -1.1900    -3.3870     2.0150 oh         1 ACP      -0.712000
     21 C1           0.3890    -1.4570     2.2500 c5         1 ACP       0.324300
     22 N9           1.0060    -0.4220     3.0960 na         1 ACP      -0.317300
     23 C8           2.2440     0.1620     2.7980 cc         1 ACP       0.475700
     24 N7           2.6560     0.9790     3.7900 nd         1 ACP      -0.579100
     25 C7           1.6230     0.8990     4.7260 ca         1 ACP      -0.077600
     26 C6           1.4950     1.5550     5.9710 ca         1 ACP       0.397900
     27 N6           2.4350     2.4090     6.4580 nv         1 ACP      -1.087900
     28 N1           0.4130     1.3730     6.7440 nb         1 ACP      -0.331000
     29 C10         -0.5270     0.5280     6.2580 ca         1 ACP       0.099900
     30 N3          -0.4840    -0.1420     5.0830 nb         1 ACP      -0.227000
     31 C9           0.6120     0.0590     4.3230 ca         1 ACP       0.081500
     32 H3B1         0.8310    -1.4240    -4.1080 hc         1 ACP       0.026200
     33 H3B2         0.1370    -1.6320    -2.4820 hc         1 ACP       0.026200
     34 H5'1        -2.1660     1.5240     1.9310 h1         1 ACP       0.000700
     35 H5'2        -0.4170     1.4690     2.0970 h1         1 ACP       0.000700
     36 H4          -1.8350    -0.4290     0.1530 h1         1 ACP       0.079700
     37 H3          -2.2730    -0.4570     3.0900 h1         1 ACP       0.057700
     38 HO3         -3.9330    -1.1450     1.7280 ho         1 ACP       0.481000
     39 H2          -0.9600    -2.3280     3.7870 h1         1 ACP       0.055700
     40 HO2         -2.1080    -3.2160     1.6690 ho         1 ACP       0.504000
     41 H1           1.1720    -2.2110     2.0970 h2         1 ACP       0.099700
     42 H8           2.7740    -0.0450     1.8710 h5         1 ACP       0.184800
     43 HN61         2.1620     3.0500     7.1990 hn         1 ACP       0.487000
     44 HN62         3.1520     2.7310     5.8110 hn         1 ACP       0.487000
     45 H6          -1.4090     0.3720     6.8770 h5         1 ACP       0.004100
@<TRIPOS>BOND
     1     1     2 1   
     2     1     3 1   
     3     1     4 1   
     4     1     8 1   
     5     5     6 1   
     6     5     7 1   
     7     5     8 1   
     8     5    12 1   
     9     8    32 1   
    10     8    33 1   
    11     9    10 1   
    12     9    11 1   
    13     9    12 1   
    14     9    13 1   
    15    13    14 1   
    16    14    15 1   
    17    14    34 1   
    18    14    35 1   
    19    15    16 1   
    20    15    17 1   
    21    15    36 1   
    22    16    21 1   
    23    17    18 1   
    24    17    19 1   
    25    17    37 1   
    26    18    38 1   
    27    19    20 1   
    28    19    21 1   
    29    19    39 1   
    30    20    40 1   
    31    21    22 1   
    32    21    41 1   
    33    22    23 1   
    34    22    31 1   
    35    23    24 2   
    36    23    42 1   
    37    24    25 1   
    38    25    26 ar  
    39    25    31 ar  
    40    26    27 1   
    41    26    28 ar  
    42    27    43 1   
    43    27    44 1   
    44    28    29 ar  
    45    29    30 ar  
    46    29    45 1   
    47    30    31 ar  
@<TRIPOS>SUBSTRUCTURE
     1 ACP         1 TEMP              0 ****  ****    0 ROOT
