@<TRIPOS>MOLECULE
ACS
   44    44     1     0     0
SMALL
No Charge or Current Charge


@<TRIPOS>ATOM
      1 N1           6.9440     1.9050     0.2710 n8         1 ACS      -0.994200
      2 C2           6.6800     0.4400     0.5150 c3         1 ACS       0.023500
      3 C3           7.9320    -0.5320     0.4080 c          1 ACS       0.724000
      4 O4           8.2650    -1.1630     1.4040 o          1 ACS      -0.738500
      5 O5           8.5630    -0.5640    -0.6420 o          1 ACS      -0.738500
      6 C6           5.5200    -0.0520    -0.3920 c3         1 ACS      -0.103400
      7 C7           4.1500     0.6140    -0.1070 c3         1 ACS      -0.067400
      8 C10          3.0090     0.0430    -0.9830 c3         1 ACS      -0.156400
      9 C13          1.6680     0.7160    -0.6740 c          1 ACS       0.606100
     10 N16          0.7710    -0.0570     0.0270 ns         1 ACS      -0.486900
     11 O17          1.3980     1.8500    -1.0470 o          1 ACS      -0.618100
     12 C18         -0.5770     0.3750     0.3680 cy         1 ACS       0.018700
     13 C19         -1.5090    -0.5650     1.1990 c          1 ACS       0.564000
     14 O20         -1.4060    -1.1880     2.2460 o          1 ACS      -0.524000
     15 N21         -2.5600    -0.3880     0.2880 nj         1 ACS      -0.379800
     16 C22         -3.9340    -0.9380     0.2790 c3         1 ACS      -0.018300
     17 C23         -4.0830    -2.2870     1.0490 c          1 ACS       0.727000
     18 C24         -4.9360     0.1310     0.7800 c3         1 ACS       0.023900
     19 S25         -4.9930     1.6100    -0.3340 s4         1 ACS       0.124400
     20 O28         -5.5680     1.1580    -1.6580 o          1 ACS      -0.539000
     21 C29         -6.3380     2.5000     0.5630 c3         1 ACS      -0.068800
     22 O35         -4.6190    -2.2890     2.1500 o          1 ACS      -0.704500
     23 O36         -3.7180    -3.3090     0.4830 o          1 ACS      -0.704500
     24 C42         -1.7270     0.3260    -0.6980 cy         1 ACS       0.228700
     25 S44         -1.4590    -0.6870    -2.2100 sh         1 ACS      -0.423800
     26 H12          7.3510     2.0110    -0.6670 hn         1 ACS       0.377000
     27 H11          6.0480     2.4000     0.2090 hn         1 ACS       0.377000
     28 H2           6.3260     0.3570     1.5530 h1         1 ACS       0.042700
     29 H62          5.7880     0.0960    -1.4450 hc         1 ACS       0.041700
     30 H61          5.4110    -1.1350    -0.2500 hc         1 ACS       0.041700
     31 H72          3.8930     0.4730     0.9510 hc         1 ACS       0.041200
     32 H71          4.2200     1.6950    -0.2770 hc         1 ACS       0.041200
     33 H102         3.2570     0.2240    -2.0360 hc         1 ACS       0.059200
     34 H101         2.9380    -1.0360    -0.8000 hc         1 ACS       0.059200
     35 H16          1.0860    -0.9870     0.2810 hn         1 ACS       0.338500
     36 H18         -0.5060     1.3550     0.8490 h1         1 ACS       0.087700
     37 H22         -4.1990    -1.1680    -0.7600 h1         1 ACS       0.060700
     38 H242        -5.9470    -0.2930     0.8180 h1         1 ACS       0.088700
     39 H241        -4.6570     0.4690     1.7860 h1         1 ACS       0.088700
     40 H293        -5.9630     2.8150     1.5450 h1         1 ACS       0.065033
     41 H292        -6.6310     3.3790    -0.0240 h1         1 ACS       0.065033
     42 H291        -7.1970     1.8290     0.6850 h1         1 ACS       0.065033
     43 H42         -2.1200     1.3010    -1.0050 h2         1 ACS       0.083700
     44 H44         -2.7520    -0.5840    -2.6010 hs         1 ACS       0.200800
@<TRIPOS>BOND
     1     1     2 1   
     2     1    26 1   
     3     1    27 1   
     4     2     3 1   
     5     2     6 1   
     6     2    28 1   
     7     3     4 1   
     8     3     5 1   
     9     6     7 1   
    10     6    29 1   
    11     6    30 1   
    12     7     8 1   
    13     7    31 1   
    14     7    32 1   
    15     8     9 1   
    16     8    33 1   
    17     8    34 1   
    18     9    10 1   
    19     9    11 2   
    20    10    12 1   
    21    10    35 1   
    22    12    13 1   
    23    12    24 1   
    24    12    36 1   
    25    13    14 2   
    26    13    15 1   
    27    15    16 1   
    28    15    24 1   
    29    16    17 1   
    30    16    18 1   
    31    16    37 1   
    32    17    22 1   
    33    17    23 1   
    34    18    19 1   
    35    18    38 1   
    36    18    39 1   
    37    19    20 2   
    38    19    21 1   
    39    21    40 1   
    40    21    41 1   
    41    21    42 1   
    42    24    25 1   
    43    24    43 1   
    44    25    44 1   
@<TRIPOS>SUBSTRUCTURE
     1 ACS         1 TEMP              0 ****  ****    0 ROOT
