@<TRIPOS>MOLECULE
ACS
   44    44     1     0     0
SMALL
abcg2


@<TRIPOS>ATOM
      1 N1           6.9430     1.2730    -1.3950 n8         1 ACS      -0.994200
      2 C2           6.7500     0.6690    -0.0860 c3         1 ACS       0.023500
      3 C3           7.9220    -0.2770     0.2510 c          1 ACS       0.724000
      4 O4           8.1530    -0.4620     1.4630 o          1 ACS      -0.738500
      5 O5           8.5090    -0.8180    -0.7070 o          1 ACS      -0.738500
      6 C6           5.4390    -0.1170     0.0740 c3         1 ACS      -0.103400
      7 C7           4.1860     0.7440    -0.0320 c3         1 ACS      -0.067400
      8 C10          2.9220    -0.0870     0.1260 c3         1 ACS      -0.156400
      9 C13          1.6460     0.7230     0.0900 c          1 ACS       0.606100
     10 N16          0.5390     0.0420     0.4720 ns         1 ACS      -0.486900
     11 O17          1.5950     1.8910    -0.2570 o          1 ACS      -0.618100
     12 C18         -0.7520     0.6400     0.4930 cy         1 ACS       0.018700
     13 C19         -1.8450    -0.1700     1.1980 c          1 ACS       0.564000
     14 O20         -1.9970    -0.6080     2.3130 o          1 ACS      -0.524000
     15 N21         -2.6130    -0.1740     0.0930 nj         1 ACS      -0.379800
     16 C22         -3.8890    -0.7620    -0.1950 c3         1 ACS      -0.018300
     17 C23         -3.8900    -2.3130    -0.0470 c          1 ACS       0.727000
     18 C24         -4.9900    -0.1240     0.6430 c3         1 ACS       0.023900
     19 S25         -4.8360     1.6870     0.5600 s4         1 ACS       0.124400
     20 O28         -4.8590     2.0540    -0.9090 o          1 ACS      -0.539000
     21 C29         -6.4660     2.0800     1.2200 c3         1 ACS      -0.068800
     22 O35         -5.0210    -2.8330    -0.1010 o          1 ACS      -0.704500
     23 O36         -2.7930    -2.8680     0.0790 o          1 ACS      -0.704500
     24 C42         -1.6660     0.5100    -0.7600 cy         1 ACS       0.228700
     25 S44         -0.8970    -0.4640    -2.0770 sh         1 ACS      -0.423800
     26 H12          7.1240     0.5340    -2.0640 hn         1 ACS       0.377000
     27 H11          6.0990     1.7420    -1.7000 hn         1 ACS       0.377000
     28 H2           6.7420     1.4740     0.6590 h1         1 ACS       0.042700
     29 H62          5.4070    -0.9130    -0.6790 hc         1 ACS       0.041700
     30 H61          5.4430    -0.6130     1.0500 hc         1 ACS       0.041700
     31 H72          4.2190     1.5220     0.7350 hc         1 ACS       0.041200
     32 H71          4.1580     1.2580    -0.9960 hc         1 ACS       0.041200
     33 H102         2.8650    -0.8370    -0.6710 hc         1 ACS       0.059200
     34 H101         2.9540    -0.6550     1.0610 hc         1 ACS       0.059200
     35 H16          0.6310    -0.9270     0.7350 hn         1 ACS       0.338500
     36 H18         -0.6950     1.6720     0.8430 h1         1 ACS       0.087700
     37 H22         -4.0940    -0.5410    -1.2470 h1         1 ACS       0.060700
     38 H242        -5.9710    -0.4190     0.2730 h1         1 ACS       0.088700
     39 H241        -4.9130    -0.3920     1.6980 h1         1 ACS       0.088700
     40 H293        -6.5350     1.7300     2.2490 h1         1 ACS       0.065033
     41 H292        -6.5790     3.1620     1.2020 h1         1 ACS       0.065033
     42 H291        -7.2370     1.6130     0.6080 h1         1 ACS       0.065033
     43 H42         -2.0460     1.4440    -1.1740 h2         1 ACS       0.083700
     44 H44         -1.8450    -0.2420    -2.9950 hs         1 ACS       0.200800
@<TRIPOS>BOND
     1     1     2 1   
     2     1    26 1   
     3     1    27 1   
     4     2     3 1   
     5     2     6 1   
     6     2    28 1   
     7     3     4 1   
     8     3     5 1   
     9     6     7 1   
    10     6    29 1   
    11     6    30 1   
    12     7     8 1   
    13     7    31 1   
    14     7    32 1   
    15     8     9 1   
    16     8    33 1   
    17     8    34 1   
    18     9    10 1   
    19     9    11 2   
    20    10    12 1   
    21    10    35 1   
    22    12    13 1   
    23    12    24 1   
    24    12    36 1   
    25    13    14 2   
    26    13    15 1   
    27    15    16 1   
    28    15    24 1   
    29    16    17 1   
    30    16    18 1   
    31    16    37 1   
    32    17    22 1   
    33    17    23 1   
    34    18    19 1   
    35    18    38 1   
    36    18    39 1   
    37    19    20 2   
    38    19    21 1   
    39    21    40 1   
    40    21    41 1   
    41    21    42 1   
    42    24    25 1   
    43    24    43 1   
    44    25    44 1   
@<TRIPOS>SUBSTRUCTURE
     1 ACS         1 TEMP              0 ****  ****    0 ROOT
