@<TRIPOS>MOLECULE
ACT
    7     6     1     0     0
SMALL
bcc


@<TRIPOS>ATOM
      1 C           50.6320    -7.1470    41.5340 c          1 ACT       0.922600
      2 O           50.8980    -7.3790    42.7320 o          1 ACT      -0.854800
      3 OXT         51.4440    -7.0880    40.5890 o          1 ACT      -0.854800
      4 CH3         49.1490    -6.8840    41.2120 c3         1 ACT      -0.215100
      5 H1          48.9410    -6.8660    40.1420 hc         1 ACT       0.000700
      6 H2          48.5070    -7.6340    41.6780 hc         1 ACT       0.000700
      7 H3          48.8450    -5.9190    41.6260 hc         1 ACT       0.000700
@<TRIPOS>BOND
     1     1     2 1   
     2     1     3 1   
     3     1     4 1   
     4     4     5 1   
     5     4     6 1   
     6     4     7 1   
@<TRIPOS>SUBSTRUCTURE
     1 ACT         1 TEMP              0 ****  ****    0 ROOT
