@<TRIPOS>MOLECULE
ACT
    7     6     1     0     0
SMALL
No Charge or Current Charge


@<TRIPOS>ATOM
      1 C           50.6250    -7.1390    41.5300 c          1 ACT       0.712000
      2 O           50.9210    -7.2550    42.7090 o          1 ACT      -0.749500
      3 OXT         51.4300    -7.2220    40.6160 o          1 ACT      -0.749500
      4 CH3         49.1540    -6.8750    41.1760 c3         1 ACT      -0.215100
      5 H1          48.9570    -6.7820    40.1010 hc         1 ACT       0.000700
      6 H2          48.5280    -7.6440    41.6450 hc         1 ACT       0.000700
      7 H3          48.8010    -6.0010    41.7370 hc         1 ACT       0.000700
@<TRIPOS>BOND
     1     1     2 1   
     2     1     3 1   
     3     1     4 1   
     4     4     5 1   
     5     4     6 1   
     6     4     7 1   
@<TRIPOS>SUBSTRUCTURE
     1 ACT         1 TEMP              0 ****  ****    0 ROOT
