@<TRIPOS>MOLECULE
ACU
    7     6     1     0     0
SMALL
No Charge or Current Charge


@<TRIPOS>ATOM
      1 CA           1.2330    -0.2200    -0.0280 c3         1 ACU      -0.221100
      2 C           -0.1430     0.4300     0.0710 c          1 ACU       0.572900
      3 O           -1.1430    -0.0350    -0.4660 o          1 ACU      -0.519100
      4 HA           1.6130    -0.3920     0.9850 hc         1 ACU       0.061367
      5 HA1          1.2280    -1.1390    -0.6260 hc         1 ACU       0.061367
      6 HA2          1.9420     0.5190    -0.4170 hc         1 ACU       0.061367
      7 H           -0.1920     1.3670     0.6690 h4         1 ACU      -0.016800
@<TRIPOS>BOND
     1     1     2 1   
     2     1     4 1   
     3     1     5 1   
     4     1     6 1   
     5     2     3 2   
     6     2     7 1   
@<TRIPOS>SUBSTRUCTURE
     1 ACU         1 TEMP              0 ****  ****    0 ROOT
