@<TRIPOS>MOLECULE
ACU
    7     6     1     0     0
SMALL
abcg2


@<TRIPOS>ATOM
      1 CA           1.2370    -0.1810     0.0020 c3         1 ACU      -0.221100
      2 C           -0.1280     0.4350     0.0550 c          1 ACU       0.572900
      3 O           -1.1530    -0.2030     0.0730 o          1 ACU      -0.519100
      4 HA           1.4010    -0.7990     0.8880 hc         1 ACU       0.061367
      5 HA1          1.3220    -0.8370    -0.8660 hc         1 ACU       0.061367
      6 HA2          2.0160     0.5760    -0.0460 hc         1 ACU       0.061367
      7 H           -0.1580     1.5380     0.0810 h4         1 ACU      -0.016800
@<TRIPOS>BOND
     1     1     2 1   
     2     1     4 1   
     3     1     5 1   
     4     1     6 1   
     5     2     3 2   
     6     2     7 1   
@<TRIPOS>SUBSTRUCTURE
     1 ACU         1 TEMP              0 ****  ****    0 ROOT
