@<TRIPOS>MOLECULE
ACV
   47    46     1     0     0
SMALL
No Charge or Current Charge


@<TRIPOS>ATOM
      1 C1          -2.0700     1.2550    -6.4910 c          1 ACV       0.725000
      2 C2          -1.5730     0.1890    -5.4220 c3         1 ACV       0.023500
      3 C3          -0.3120     0.7020    -4.6760 c3         1 ACV      -0.104400
      4 C4           0.0470    -0.0900    -3.3940 c3         1 ACV      -0.068400
      5 C7           1.2670     0.4990    -2.6450 c3         1 ACV      -0.153400
      6 C10          1.5950    -0.3020    -1.3790 c          1 ACV       0.610100
      7 N11          1.2570     0.3170    -0.1970 ns         1 ACV      -0.494900
      8 C12          1.5230    -0.2240     1.1600 c3         1 ACV       0.036700
      9 C13          0.2710    -0.0740     2.0680 c          1 ACV       0.594100
     10 N14         -1.3420    -1.2120    -5.9290 n8         1 ACV      -0.990200
     11 O15          2.1320    -1.4000    -1.4170 o          1 ACV      -0.616100
     12 C16          2.7480     0.4630     1.8160 c3         1 ACV       0.062600
     13 S17          4.3070     0.4200     0.8080 sh         1 ACV      -0.421800
     14 O18         -0.6890     0.6300     1.7740 o          1 ACV      -0.611100
     15 O19         -3.1630     1.7830    -6.3210 o          1 ACV      -0.739500
     16 O20         -1.3790     1.4600    -7.4820 o          1 ACV      -0.739500
     17 N29          0.3140    -0.8010     3.2420 ns         1 ACV      -0.459900
     18 C30         -0.7150    -0.7750     4.3110 c3         1 ACV      -0.031300
     19 C31         -0.6450    -2.0820     5.1710 c          1 ACV       0.721000
     20 C32         -0.6440     0.5330     5.1610 c3         1 ACV      -0.048700
     21 C33         -1.8150     0.6420     6.1630 c3         1 ACV      -0.076100
     22 C37          0.7180     0.7360     5.8690 c3         1 ACV      -0.076100
     23 O42         -1.6940    -2.6570     5.4260 o          1 ACV      -0.720000
     24 O43          0.4540    -2.5670     5.4110 o          1 ACV      -0.720000
     25 H2          -2.3760     0.1220    -4.6740 h1         1 ACV       0.044700
     26 H31         -0.4830     1.7490    -4.3960 hc         1 ACV       0.040200
     27 H32A         0.5460     0.7020    -5.3610 hc         1 ACV       0.040200
     28 H41          0.2600    -1.1350    -3.6500 hc         1 ACV       0.042700
     29 H42         -0.8180    -0.0960    -2.7190 hc         1 ACV       0.042700
     30 H71          1.0430     1.5400    -2.3810 hc         1 ACV       0.054700
     31 H72          2.1340     0.4650    -3.3140 hc         1 ACV       0.054700
     32 HNB          0.7820     1.2090    -0.2720 hn         1 ACV       0.330500
     33 H12          1.7280    -1.2990     1.0840 h1         1 ACV       0.095700
     34 HNE1        -0.6490    -1.1740    -6.6860 hn         1 ACV       0.373500
     35 HNE2        -0.8790    -1.7600    -5.1960 hn         1 ACV       0.373500
     36 H161         2.5040     1.5160     2.0090 h1         1 ACV       0.059200
     37 H162         2.9580    -0.0110     2.7830 h1         1 ACV       0.059200
     38 HS7          5.0760     1.1000     1.6930 hs         1 ACV       0.170800
     39 HNT          1.1320    -1.3800     3.3980 hn         1 ACV       0.296500
     40 H30         -1.6940    -0.7910     3.8120 h1         1 ACV       0.051700
     41 H32         -0.7600     1.3730     4.4650 hc         1 ACV       0.001700
     42 H331        -1.8110     1.6220     6.6560 hc         1 ACV       0.027200
     43 H332        -2.7770     0.5280     5.6490 hc         1 ACV       0.027200
     44 H333        -1.7460    -0.1290     6.9390 hc         1 ACV       0.027200
     45 H371         0.8980    -0.0500     6.6120 hc         1 ACV       0.027200
     46 H372         1.5450     0.7260     5.1490 hc         1 ACV       0.027200
     47 H373         0.7400     1.7020     6.3870 hc         1 ACV       0.027200
@<TRIPOS>BOND
     1     1     2 1   
     2     1    15 1   
     3     1    16 1   
     4     2     3 1   
     5     2    10 1   
     6     2    25 1   
     7     3     4 1   
     8     3    26 1   
     9     3    27 1   
    10     4     5 1   
    11     4    28 1   
    12     4    29 1   
    13     5     6 1   
    14     5    30 1   
    15     5    31 1   
    16     6     7 1   
    17     6    11 2   
    18     7     8 1   
    19     7    32 1   
    20     8     9 1   
    21     8    12 1   
    22     8    33 1   
    23     9    14 2   
    24     9    17 1   
    25    10    34 1   
    26    10    35 1   
    27    12    13 1   
    28    12    36 1   
    29    12    37 1   
    30    13    38 1   
    31    17    18 1   
    32    17    39 1   
    33    18    19 1   
    34    18    20 1   
    35    18    40 1   
    36    19    23 1   
    37    19    24 1   
    38    20    21 1   
    39    20    22 1   
    40    20    41 1   
    41    21    42 1   
    42    21    43 1   
    43    21    44 1   
    44    22    45 1   
    45    22    46 1   
    46    22    47 1   
@<TRIPOS>SUBSTRUCTURE
     1 ACV         1 TEMP              0 ****  ****    0 ROOT
