@<TRIPOS>MOLECULE
ACV
   47    46     1     0     0
SMALL
abcg2


@<TRIPOS>ATOM
      1 C1          -1.5340    -0.2060    -7.0570 c          1 ACV       0.725000
      2 C2          -0.7410    -0.8830    -5.9190 c3         1 ACV       0.023500
      3 C3          -0.6650     0.0990    -4.7370 c3         1 ACV      -0.104400
      4 C4           0.0070    -0.4790    -3.4970 c3         1 ACV      -0.068400
      5 C7           0.0380     0.5240    -2.3560 c3         1 ACV      -0.153400
      6 C10          0.7300     0.0170    -1.1080 c          1 ACV       0.610100
      7 N11          0.6000     0.8280    -0.0390 ns         1 ACV      -0.494900
      8 C12          1.2100     0.5840     1.2380 c3         1 ACV       0.036700
      9 C13          0.2280     0.9770     2.3460 c          1 ACV       0.594100
     10 N14          0.5450    -1.3600    -6.4030 n8         1 ACV      -0.990200
     11 O15          1.3630    -1.0270    -1.0730 o          1 ACV      -0.616100
     12 C16          2.4960     1.3910     1.4410 c3         1 ACV       0.062600
     13 S17          3.7160     0.9560     0.1590 sh         1 ACV      -0.421800
     14 O18         -0.6010     1.8580     2.1680 o          1 ACV      -0.611100
     15 O19         -2.7740    -0.1770    -6.9230 o          1 ACV      -0.739500
     16 O20         -0.8770     0.2960    -7.9900 o          1 ACV      -0.739500
     17 N29          0.4090     0.3460     3.5050 ns         1 ACV      -0.459900
     18 C30         -0.4360     0.5800     4.6580 c3         1 ACV      -0.031300
     19 C31         -1.8940     0.1170     4.4090 c          1 ACV       0.721000
     20 C32          0.1950    -0.1170     5.8780 c3         1 ACV      -0.048700
     21 C33         -0.3740     0.4040     7.1930 c3         1 ACV      -0.076100
     22 C37          0.0990    -1.6400     5.8200 c3         1 ACV      -0.076100
     23 O42         -2.7600     0.6720     5.1140 o          1 ACV      -0.720000
     24 O43         -2.0710    -0.7760     3.5640 o          1 ACV      -0.720000
     25 H2          -1.3130    -1.7560    -5.5810 h1         1 ACV       0.044700
     26 H31         -1.6810     0.4130    -4.4790 hc         1 ACV       0.040200
     27 H32A        -0.1310     1.0020    -5.0540 hc         1 ACV       0.040200
     28 H41          1.0300    -0.7810    -3.7320 hc         1 ACV       0.042700
     29 H42         -0.5220    -1.3840    -3.1860 hc         1 ACV       0.042700
     30 H71         -0.9780     0.8390    -2.0960 hc         1 ACV       0.054700
     31 H72          0.5560     1.4350    -2.6750 hc         1 ACV       0.054700
     32 HNB          0.0570     1.6740    -0.1280 hn         1 ACV       0.330500
     33 H12          1.4430    -0.4810     1.3110 h1         1 ACV       0.095700
     34 HNE1         1.0500    -0.5810    -6.8070 hn         1 ACV       0.373500
     35 HNE2         1.1070    -1.7000    -5.6320 hn         1 ACV       0.373500
     36 H161         2.2770     2.4590     1.3880 h1         1 ACV       0.059200
     37 H162         2.9120     1.1730     2.4240 h1         1 ACV       0.059200
     38 HS7          4.6680     1.8030     0.5670 hs         1 ACV       0.170800
     39 HNT          1.0580    -0.4250     3.5340 hn         1 ACV       0.296500
     40 H30         -0.4410     1.6550     4.8610 h1         1 ACV       0.051700
     41 H32          1.2590     0.1510     5.8600 hc         1 ACV       0.001700
     42 H331         0.1540    -0.0450     8.0360 hc         1 ACV       0.027200
     43 H332        -0.2650     1.4870     7.2700 hc         1 ACV       0.027200
     44 H333        -1.4320     0.1680     7.2930 hc         1 ACV       0.027200
     45 H371        -0.9300    -1.9800     5.9470 hc         1 ACV       0.027200
     46 H372         0.4650    -2.0550     4.8800 hc         1 ACV       0.027200
     47 H373         0.6930    -2.0820     6.6220 hc         1 ACV       0.027200
@<TRIPOS>BOND
     1     1     2 1   
     2     1    15 1   
     3     1    16 1   
     4     2     3 1   
     5     2    10 1   
     6     2    25 1   
     7     3     4 1   
     8     3    26 1   
     9     3    27 1   
    10     4     5 1   
    11     4    28 1   
    12     4    29 1   
    13     5     6 1   
    14     5    30 1   
    15     5    31 1   
    16     6     7 1   
    17     6    11 2   
    18     7     8 1   
    19     7    32 1   
    20     8     9 1   
    21     8    12 1   
    22     8    33 1   
    23     9    14 2   
    24     9    17 1   
    25    10    34 1   
    26    10    35 1   
    27    12    13 1   
    28    12    36 1   
    29    12    37 1   
    30    13    38 1   
    31    17    18 1   
    32    17    39 1   
    33    18    19 1   
    34    18    20 1   
    35    18    40 1   
    36    19    23 1   
    37    19    24 1   
    38    20    21 1   
    39    20    22 1   
    40    20    41 1   
    41    21    42 1   
    42    21    43 1   
    43    21    44 1   
    44    22    45 1   
    45    22    46 1   
    46    22    47 1   
@<TRIPOS>SUBSTRUCTURE
     1 ACV         1 TEMP              0 ****  ****    0 ROOT
