@<TRIPOS>MOLECULE
ACW
   48    48     1     0     0
SMALL
No Charge or Current Charge


@<TRIPOS>ATOM
      1 C1          -7.6570    -0.6950     0.2520 c          1 ACW       0.691000
      2 C2          -6.3080     0.1370     0.1910 c3         1 ACW       0.014500
      3 C3          -5.1090    -0.8040    -0.1060 c3         1 ACW      -0.052400
      4 C4          -3.8070    -0.0750    -0.5200 c3         1 ACW      -0.064400
      5 C7          -2.6540    -1.0470    -0.8670 c3         1 ACW      -0.153400
      6 C10         -1.3860    -0.2910    -1.2780 c          1 ACW       0.606100
      7 N11         -0.3720    -0.3090    -0.3470 ns         1 ACW      -0.502900
      8 C12          0.9400     0.3710    -0.4940 c3         1 ACW       0.035700
      9 C13          2.0950    -0.5530    -0.0190 c          1 ACW       0.583100
     10 N14         -6.0210     1.0180     1.3830 n8         1 ACW      -0.992200
     11 O15         -1.2660     0.2470    -2.3690 o          1 ACW      -0.606100
     12 C16          0.9730     1.7120     0.2830 c3         1 ACW       0.066600
     13 S17         -0.3870     2.9030    -0.1410 sh         1 ACW      -0.419800
     14 O18          1.9100    -1.5690     0.6430 o          1 ACW      -0.655100
     15 O19         -7.8950    -1.3470     1.2610 o          1 ACW      -0.742000
     16 O20         -8.4620    -0.5630    -0.6600 o          1 ACW      -0.742000
     17 N29          3.3580    -0.1490    -0.4020 ns         1 ACW      -0.456900
     18 C30          4.6270    -0.8260    -0.0400 c3         1 ACW      -0.014300
     19 C31          5.6770    -0.6930    -1.1950 c          1 ACW       0.719000
     20 C32          5.1710    -0.3260     1.3150 cx         1 ACW      -0.078000
     21 C33          6.1830    -1.1830     2.0470 cx         1 ACW      -0.136900
     22 C37          5.3300     1.1980     1.3750 c3         1 ACW      -0.046100
     23 O42          5.6550     0.3110    -1.8960 o          1 ACW      -0.722000
     24 O43          6.4460    -1.6250    -1.3890 o          1 ACW      -0.722000
     25 C40          4.7760    -1.0620     2.5780 cx         1 ACW      -0.136900
     26 H2          -6.4090     0.8080    -0.6740 h1         1 ACW       0.039700
     27 H3C1        -5.3970    -1.4820    -0.9200 hc         1 ACW       0.034700
     28 H3C2        -4.9140    -1.4360     0.7690 hc         1 ACW       0.034700
     29 H4C1        -3.4810     0.5870     0.2920 hc         1 ACW       0.053200
     30 H4C2        -4.0130     0.5650    -1.3880 hc         1 ACW       0.053200
     31 H7C1        -2.9730    -1.6800    -1.7040 hc         1 ACW       0.050200
     32 H7C2        -2.4520    -1.6700     0.0130 hc         1 ACW       0.050200
     33 H11         -0.5460    -0.8320     0.5050 hn         1 ACW       0.324500
     34 H12          1.1180     0.5800    -1.5560 h1         1 ACW       0.104700
     35 H141        -6.8090     1.6630     1.5180 hn         1 ACW       0.376000
     36 H142        -6.0520     0.4330     2.2270 hn         1 ACW       0.376000
     37 H161         0.9100     1.5020     1.3590 h1         1 ACW       0.063200
     38 H162         1.9320     2.2170     0.1010 h1         1 ACW       0.063200
     39 H17         -0.0110     3.8750     0.7250 hs         1 ACW       0.172800
     40 H29          3.4230     0.6750    -0.9900 hn         1 ACW       0.343500
     41 H30          4.4190    -1.9000     0.0470 h1         1 ACW       0.062700
     42 H331         6.4720    -2.1310     1.6000 hc         1 ACW       0.062450
     43 H332         6.9760    -0.6830     2.5980 hc         1 ACW       0.062450
     44 H371         5.9930     1.5630     0.5830 hc         1 ACW       0.025367
     45 H372         4.3640     1.7070     1.2740 hc         1 ACW       0.025367
     46 H373         5.7620     1.5150     2.3320 hc         1 ACW       0.025367
     47 H401         4.6250    -0.4790     3.4830 hc         1 ACW       0.062450
     48 H402         4.1260    -1.9280     2.4850 hc         1 ACW       0.062450
@<TRIPOS>BOND
     1     1     2 1   
     2     1    15 1   
     3     1    16 1   
     4     2     3 1   
     5     2    10 1   
     6     2    26 1   
     7     3     4 1   
     8     3    27 1   
     9     3    28 1   
    10     4     5 1   
    11     4    29 1   
    12     4    30 1   
    13     5     6 1   
    14     5    31 1   
    15     5    32 1   
    16     6     7 1   
    17     6    11 2   
    18     7     8 1   
    19     7    33 1   
    20     8     9 1   
    21     8    12 1   
    22     8    34 1   
    23     9    14 2   
    24     9    17 1   
    25    10    35 1   
    26    10    36 1   
    27    12    13 1   
    28    12    37 1   
    29    12    38 1   
    30    13    39 1   
    31    17    18 1   
    32    17    40 1   
    33    18    19 1   
    34    18    20 1   
    35    18    41 1   
    36    19    23 1   
    37    19    24 1   
    38    20    21 1   
    39    20    22 1   
    40    20    25 1   
    41    21    25 1   
    42    21    42 1   
    43    21    43 1   
    44    22    44 1   
    45    22    45 1   
    46    22    46 1   
    47    25    47 1   
    48    25    48 1   
@<TRIPOS>SUBSTRUCTURE
     1 ACW         1 TEMP              0 ****  ****    0 ROOT
