@<TRIPOS>MOLECULE
ACW
   48    48     1     0     0
SMALL
abcg2


@<TRIPOS>ATOM
      1 C1          -7.5210    -1.3430    -0.4970 c          1 ACW       0.691000
      2 C2          -6.4180    -0.2830    -0.7440 c3         1 ACW       0.014500
      3 C3          -5.1020    -0.7730    -0.1330 c3         1 ACW      -0.052400
      4 C4          -3.9050     0.1070    -0.4650 c3         1 ACW      -0.064400
      5 C7          -2.6230    -0.4340     0.1480 c3         1 ACW      -0.153400
      6 C10         -1.3930     0.3840    -0.1800 c          1 ACW       0.606100
      7 N11         -0.3390     0.1500     0.6300 ns         1 ACW      -0.502900
      8 C12          0.9560     0.7510     0.4650 c3         1 ACW       0.035700
      9 C13          2.0390    -0.3300     0.5520 c          1 ACW       0.583100
     10 N14         -6.7250     1.0580    -0.2660 n8         1 ACW      -0.992200
     11 O15         -1.3500     1.1760    -1.1090 o          1 ACW      -0.606100
     12 C16          1.2500     1.8000     1.5400 c3         1 ACW       0.066600
     13 S17         -0.0110     3.1130     1.4680 sh         1 ACW      -0.419800
     14 O18          1.8930    -1.2990     1.2850 o          1 ACW      -0.655100
     15 O19         -8.4460    -1.0460     0.2850 o          1 ACW      -0.742000
     16 O20         -7.3780    -2.4300    -1.0970 o          1 ACW      -0.742000
     17 N29          3.1160    -0.0790    -0.1890 ns         1 ACW      -0.456900
     18 C30          4.3030    -0.9030    -0.2730 c3         1 ACW      -0.014300
     19 C31          4.9390    -0.7210    -1.6750 c          1 ACW       0.719000
     20 C32          5.3100    -0.5450     0.8100 cx         1 ACW      -0.078000
     21 C33          6.2760    -1.6100     1.2210 cx         1 ACW      -0.136900
     22 C37          5.7990     0.8830     0.7830 c3         1 ACW      -0.046100
     23 O42          4.5420     0.2520    -2.3500 o          1 ACW      -0.722000
     24 O43          5.8070    -1.5500    -1.9880 o          1 ACW      -0.722000
     25 C40          5.1640    -1.2110     2.1470 cx         1 ACW      -0.136900
     26 H2          -6.2680    -0.2170    -1.8280 h1         1 ACW       0.039700
     27 H3C1        -4.9150    -1.7910    -0.4840 hc         1 ACW       0.034700
     28 H3C2        -5.2170    -0.8410     0.9560 hc         1 ACW       0.034700
     29 H4C1        -4.0900     1.1240    -0.1150 hc         1 ACW       0.053200
     30 H4C2        -3.7950     0.1690    -1.5510 hc         1 ACW       0.053200
     31 H7C1        -2.4430    -1.4560    -0.2050 hc         1 ACW       0.050200
     32 H7C2        -2.7260    -0.5120     1.2340 hc         1 ACW       0.050200
     33 H11         -0.4380    -0.5260     1.3720 hn         1 ACW       0.324500
     34 H12          0.9830     1.2320    -0.5140 h1         1 ACW       0.104700
     35 H141        -7.5350     1.4000    -0.7690 hn         1 ACW       0.376000
     36 H142        -7.0450     0.9800     0.6930 hn         1 ACW       0.376000
     37 H161         1.2470     1.3380     2.5290 h1         1 ACW       0.063200
     38 H162         2.2350     2.2320     1.3650 h1         1 ACW       0.063200
     39 H17          0.5510     3.9150     2.3800 hs         1 ACW       0.172800
     40 H29          3.0980     0.6810    -0.8560 hn         1 ACW       0.343500
     41 H30          4.0140    -1.9500    -0.1490 h1         1 ACW       0.062700
     42 H331         6.2150    -2.5740     0.7310 hc         1 ACW       0.062450
     43 H332         7.2860    -1.3100     1.4710 hc         1 ACW       0.062450
     44 H371         6.3110     1.1190    -0.1520 hc         1 ACW       0.025367
     45 H372         4.9740     1.5900     0.8980 hc         1 ACW       0.025367
     46 H373         6.5040     1.0700     1.5940 hc         1 ACW       0.025367
     47 H401         5.4130    -0.6380     3.0320 hc         1 ACW       0.062450
     48 H402         4.3430    -1.9020     2.2840 hc         1 ACW       0.062450
@<TRIPOS>BOND
     1     1     2 1   
     2     1    15 1   
     3     1    16 1   
     4     2     3 1   
     5     2    10 1   
     6     2    26 1   
     7     3     4 1   
     8     3    27 1   
     9     3    28 1   
    10     4     5 1   
    11     4    29 1   
    12     4    30 1   
    13     5     6 1   
    14     5    31 1   
    15     5    32 1   
    16     6     7 1   
    17     6    11 2   
    18     7     8 1   
    19     7    33 1   
    20     8     9 1   
    21     8    12 1   
    22     8    34 1   
    23     9    14 2   
    24     9    17 1   
    25    10    35 1   
    26    10    36 1   
    27    12    13 1   
    28    12    37 1   
    29    12    38 1   
    30    13    39 1   
    31    17    18 1   
    32    17    40 1   
    33    18    19 1   
    34    18    20 1   
    35    18    41 1   
    36    19    23 1   
    37    19    24 1   
    38    20    21 1   
    39    20    22 1   
    40    20    25 1   
    41    21    25 1   
    42    21    42 1   
    43    21    43 1   
    44    22    44 1   
    45    22    45 1   
    46    22    46 1   
    47    25    47 1   
    48    25    48 1   
@<TRIPOS>SUBSTRUCTURE
     1 ACW         1 TEMP              0 ****  ****    0 ROOT
