@<TRIPOS>MOLECULE
ACY
    7     6     1     0     0
SMALL
No Charge or Current Charge


@<TRIPOS>ATOM
      1 C           -8.7190     8.1560     3.8290 c          1 ACY       0.713000
      2 O           -9.4120     8.3940     4.8060 o          1 ACY      -0.750000
      3 OXT         -8.2290     7.0630     3.5930 o          1 ACY      -0.750000
      4 CH3         -8.4480     9.2990     2.8400 c3         1 ACY      -0.215100
      5 H1          -8.9170    10.2530     3.1110 hc         1 ACY       0.000700
      6 H2          -7.3650     9.3980     2.6930 hc         1 ACY       0.000700
      7 H3          -8.7280     8.9740     1.8300 hc         1 ACY       0.000700
@<TRIPOS>BOND
     1     1     2 1   
     2     1     3 1   
     3     1     4 1   
     4     4     5 1   
     5     4     6 1   
     6     4     7 1   
@<TRIPOS>SUBSTRUCTURE
     1 ACY         1 TEMP              0 ****  ****    0 ROOT
