@<TRIPOS>MOLECULE
ACY
    7     6     1     0     0
SMALL
abcg2


@<TRIPOS>ATOM
      1 C           -8.7270     8.1430     3.8260 c          1 ACY       0.713000
      2 O           -9.1810     8.4900     4.9350 o          1 ACY      -0.750000
      3 OXT         -8.4500     6.9810     3.4640 o          1 ACY      -0.750000
      4 CH3         -8.4370     9.2650     2.8120 c3         1 ACY      -0.215100
      5 H1          -9.0360    10.1570     2.9970 hc         1 ACY       0.000700
      6 H2          -7.3870     9.5620     2.8860 hc         1 ACY       0.000700
      7 H3          -8.5990     8.9400     1.7830 hc         1 ACY       0.000700
@<TRIPOS>BOND
     1     1     2 1   
     2     1     3 1   
     3     1     4 1   
     4     4     5 1   
     5     4     6 1   
     6     4     7 1   
@<TRIPOS>SUBSTRUCTURE
     1 ACY         1 TEMP              0 ****  ****    0 ROOT
