@<TRIPOS>MOLECULE
ACZ
   29    29     1     0     0
SMALL
abcg2


@<TRIPOS>ATOM
      1 NH         -18.3620    -2.7090    16.5580 n8         1 ACZ      -0.993200
      2 CZ         -16.9700    -2.2120    16.6980 c6         1 ACZ       0.233900
      3 CE2        -16.7630    -1.0660    15.7500 c2         1 ACZ      -0.263200
      4 CD2        -15.8580    -1.0700    14.7770 c2         1 ACZ      -0.172200
      5 CG         -14.9180    -2.2080    14.5040 c6         1 ACZ      -0.015300
      6 CD1        -15.0480    -3.3010    15.5230 c2         1 ACZ      -0.172200
      7 CE1        -15.9440    -3.2960    16.5050 c2         1 ACZ      -0.263200
      8 CX         -15.0870    -2.7440    13.0600 c3         1 ACZ      -0.058400
      9 CB         -16.4520    -3.3730    12.7930 c3         1 ACZ      -0.041400
     10 CA         -16.6520    -3.8360    11.3420 c3         1 ACZ       0.015500
     11 N          -15.7170    -4.9220    11.0100 n8         1 ACZ      -1.002200
     12 C          -16.5900    -2.6130    10.3850 c          1 ACZ       0.683000
     13 O2         -15.5970    -2.5130     9.6210 o          1 ACZ      -0.737500
     14 O          -17.5450    -1.7960    10.4690 o          1 ACZ      -0.737500
     15 HNH1       -18.5340    -3.4290    17.2540 hn         1 ACZ       0.390500
     16 HNH2       -18.4520    -3.1640    15.6530 hn         1 ACZ       0.390500
     17 HCZ        -16.9000    -1.8350    17.7260 h1         1 ACZ       0.047700
     18 HE22       -17.4260    -0.2160    15.8790 ha         1 ACZ       0.165500
     19 HD22       -15.7810    -0.2160    14.1090 ha         1 ACZ       0.175000
     20 HCG        -13.8920    -1.8180    14.5550 hc         1 ACZ       0.048700
     21 HD11       -14.3640    -4.1390    15.4180 ha         1 ACZ       0.175000
     22 HE11       -15.9900    -4.1250    17.2060 ha         1 ACZ       0.165500
     23 HCX1       -14.9190    -1.9140    12.3680 hc         1 ACZ       0.052700
     24 HCX2       -14.2960    -3.4750    12.8720 hc         1 ACZ       0.052700
     25 HCB1       -16.5900    -4.2340    13.4510 hc         1 ACZ       0.029700
     26 HCB2       -17.2360    -2.6540    13.0360 hc         1 ACZ       0.029700
     27 HCA        -17.6640    -4.2420    11.2670 h1         1 ACZ       0.037700
     28 HN1        -14.8370    -4.4930    10.7360 hn         1 ACZ       0.380500
     29 HN2        -16.0450    -5.3780    10.1640 hn         1 ACZ       0.380500
@<TRIPOS>BOND
     1     1     2 1   
     2     1    15 1   
     3     1    16 1   
     4     2     3 1   
     5     2     7 1   
     6     2    17 1   
     7     3     4 2   
     8     3    18 1   
     9     4     5 1   
    10     4    19 1   
    11     5     6 1   
    12     5     8 1   
    13     5    20 1   
    14     6     7 2   
    15     6    21 1   
    16     7    22 1   
    17     8     9 1   
    18     8    23 1   
    19     8    24 1   
    20     9    10 1   
    21     9    25 1   
    22     9    26 1   
    23    10    11 1   
    24    10    12 1   
    25    10    27 1   
    26    11    28 1   
    27    11    29 1   
    28    12    13 1   
    29    12    14 1   
@<TRIPOS>SUBSTRUCTURE
     1 ACZ         1 TEMP              0 ****  ****    0 ROOT
