@<TRIPOS>MOLECULE
ACZ
   29    29     1     0     0
SMALL
No Charge or Current Charge


@<TRIPOS>ATOM
      1 NH         -18.2720    -2.8280    16.2490 n8         1 ACZ      -0.993200
      2 CZ         -17.0060    -2.2480    16.6600 c6         1 ACZ       0.233900
      3 CE2        -16.7330    -1.0310    15.8030 c2         1 ACZ      -0.263200
      4 CD2        -15.7770    -0.9870    14.8570 c2         1 ACZ      -0.172200
      5 CG         -14.8510    -2.1590    14.5540 c6         1 ACZ      -0.015300
      6 CD1        -14.9710    -3.2740    15.5870 c2         1 ACZ      -0.172200
      7 CE1        -15.9310    -3.3040    16.5280 c2         1 ACZ      -0.263200
      8 CX         -15.0880    -2.7020    13.1130 c3         1 ACZ      -0.058400
      9 CB         -16.5000    -3.2920    12.8450 c3         1 ACZ      -0.041400
     10 CA         -16.7380    -3.8120    11.3980 c3         1 ACZ       0.015500
     11 N          -15.8740    -5.0160    11.1070 n8         1 ACZ      -1.002200
     12 C          -16.6870    -2.6270    10.3440 c          1 ACZ       0.683000
     13 O2         -15.6590    -2.4580     9.7000 o          1 ACZ      -0.737500
     14 O          -17.7210    -2.0140    10.1150 o          1 ACZ      -0.737500
     15 HNH1       -18.4040    -3.7000    16.7690 hn         1 ACZ       0.390500
     16 HNH2       -18.1480    -3.1390    15.2820 hn         1 ACZ       0.390500
     17 HCZ        -17.0970    -1.9440    17.7150 h1         1 ACZ       0.047700
     18 HE22       -17.3660    -0.1650    15.9920 ha         1 ACZ       0.165500
     19 HD22       -15.6220    -0.0820    14.2660 ha         1 ACZ       0.175000
     20 HCG        -13.8170    -1.7860    14.5810 hc         1 ACZ       0.048700
     21 HD11       -14.2150    -4.0610    15.5380 ha         1 ACZ       0.175000
     22 HE11       -15.9630    -4.1140    17.2580 ha         1 ACZ       0.165500
     23 HCX1       -14.9030    -1.8920    12.3970 hc         1 ACZ       0.052700
     24 HCX2       -14.3370    -3.4710    12.8960 hc         1 ACZ       0.052700
     25 HCB1       -16.6880    -4.1120    13.5490 hc         1 ACZ       0.029700
     26 HCB2       -17.2540    -2.5260    13.0610 hc         1 ACZ       0.029700
     27 HCA        -17.7740    -4.1790    11.3730 h1         1 ACZ       0.037700
     28 HN1        -14.9110    -4.6870    10.9740 hn         1 ACZ       0.380500
     29 HN2        -16.1190    -5.3800    10.1780 hn         1 ACZ       0.380500
@<TRIPOS>BOND
     1     1     2 1   
     2     1    15 1   
     3     1    16 1   
     4     2     3 1   
     5     2     7 1   
     6     2    17 1   
     7     3     4 2   
     8     3    18 1   
     9     4     5 1   
    10     4    19 1   
    11     5     6 1   
    12     5     8 1   
    13     5    20 1   
    14     6     7 2   
    15     6    21 1   
    16     7    22 1   
    17     8     9 1   
    18     8    23 1   
    19     8    24 1   
    20     9    10 1   
    21     9    25 1   
    22     9    26 1   
    23    10    11 1   
    24    10    12 1   
    25    10    27 1   
    26    11    28 1   
    27    11    29 1   
    28    12    13 1   
    29    12    14 1   
@<TRIPOS>SUBSTRUCTURE
     1 ACZ         1 TEMP              0 ****  ****    0 ROOT
