@<TRIPOS>MOLECULE
AD0
   41    42     1     0     0
SMALL
bcc


@<TRIPOS>ATOM
      1 C1           3.2170    -2.6820    -2.9190 c6         1 AD0       0.354900
      2 C2           4.4480    -3.3010    -2.2830 c6         1 AD0       0.086100
      3 C3           5.3580    -3.8630    -3.3890 c6         1 AD0       0.120100
      4 C4           5.6930    -2.7300    -4.3700 c6         1 AD0       0.092100
      5 C5           4.4620    -1.9750    -4.8870 c6         1 AD0       0.039100
      6 C6           3.6840    -2.6830    -6.0240 c          1 AD0       0.929600
      7 O1           2.4260    -2.1130    -1.9480 os         1 AD0      -0.375600
      8 O2           5.1010    -2.3130    -1.5220 oh         1 AD0      -0.577800
      9 O3           4.7880    -4.9890    -3.9910 oh         1 AD0      -0.662800
     10 O4           6.3910    -3.1720    -5.5100 oh         1 AD0      -0.571800
     11 O5           3.5850    -1.6430    -3.8140 os         1 AD0      -0.475600
     12 O6           3.3970    -2.0010    -7.0130 o          1 AD0      -0.817800
     13 C7           0.2150    -0.0670    -0.2880 c6         1 AD0       0.348900
     14 O60          3.3590    -3.8890    -5.8440 o          1 AD0      -0.817800
     15 C8           0.8460     0.3380    -1.6270 c6         1 AD0       0.039100
     16 C9           0.5660    -0.7210    -2.6870 c6         1 AD0       0.096100
     17 C10          1.0250    -2.0820    -2.1780 c6         1 AD0       0.108100
     18 C11          0.3420    -2.3770    -0.8510 c6         1 AD0      -0.004900
     19 C12          0.8150    -3.7340    -0.2830 c          1 AD0       0.952600
     20 O8           0.3060     1.5920    -1.9810 oh         1 AD0      -0.640800
     21 O9           1.0910    -0.3470    -3.9390 oh         1 AD0      -0.631800
     22 O10          0.5960    -1.3460     0.0890 os         1 AD0      -0.351600
     23 O11          0.7380    -4.6800    -1.0900 o          1 AD0      -0.824300
     24 OAP          1.1900    -3.7720     0.8980 o          1 AD0      -0.824300
     25 H1           2.6660    -3.4660    -3.4540 h2         1 AD0       0.083700
     26 H2           4.1060    -4.1360    -1.6560 h1         1 AD0       0.076700
     27 H3           6.2970    -4.1840    -2.9160 h1         1 AD0       0.009700
     28 HA           5.7470    -2.7490    -0.9590 ho         1 AD0       0.373000
     29 H4           6.2940    -2.0040    -3.8090 h1         1 AD0       0.013700
     30 HB           4.1880    -4.6660    -4.7160 ho         1 AD0       0.491000
     31 H5           4.8020    -1.0110    -5.2710 h1         1 AD0       0.057700
     32 HC           7.2780    -3.4310    -5.2420 ho         1 AD0       0.370000
     33 H9           0.7370    -2.8600    -2.8940 h1         1 AD0       0.085700
     34 H7           1.9320     0.4130    -1.4760 h1         1 AD0       0.071700
     35 H8          -0.5190    -0.7920    -2.8290 h1         1 AD0       0.058700
     36 HE           0.5080     1.7480    -2.9110 ho         1 AD0       0.418000
     37 HF           2.0350    -0.5740    -3.9720 ho         1 AD0       0.452000
     38 H10         -0.7370    -2.4610    -1.0450 h1         1 AD0       0.033700
     39 O7          -1.1850     0.0030    -0.3460 oh         1 AD0      -0.641800
     40 HD          -1.4250     0.7330    -0.9290 ho         1 AD0       0.409000
     41 H6           0.5960     0.5920     0.5050 h2         1 AD0       0.047700
@<TRIPOS>BOND
     1     1     2 1   
     2     1     7 1   
     3     1    11 1   
     4     1    25 1   
     5     2     3 1   
     6     2     8 1   
     7     2    26 1   
     8     3     4 1   
     9     3     9 1   
    10     3    27 1   
    11     4     5 1   
    12     4    10 1   
    13     4    29 1   
    14     5     6 1   
    15     5    11 1   
    16     5    31 1   
    17     6    12 1   
    18     6    14 1   
    19     7    17 1   
    20     8    28 1   
    21     9    30 1   
    22    10    32 1   
    23    13    15 1   
    24    13    22 1   
    25    13    39 1   
    26    13    41 1   
    27    15    16 1   
    28    15    20 1   
    29    15    34 1   
    30    16    17 1   
    31    16    21 1   
    32    16    35 1   
    33    17    18 1   
    34    17    33 1   
    35    18    19 1   
    36    18    22 1   
    37    18    38 1   
    38    19    23 1   
    39    19    24 1   
    40    20    36 1   
    41    21    37 1   
    42    39    40 1   
@<TRIPOS>SUBSTRUCTURE
     1 AD0         1 TEMP              0 ****  ****    0 ROOT
