@<TRIPOS>MOLECULE
AD0
   41    42     1     0     0
SMALL
No Charge or Current Charge


@<TRIPOS>ATOM
      1 C1           3.3260    -2.7260    -2.8640 c6         1 AD0       0.401300
      2 C2           4.7400    -3.0690    -2.2690 c6         1 AD0       0.109300
      3 C3           5.6580    -3.5900    -3.4240 c6         1 AD0       0.143300
      4 C4           5.7230    -2.5380    -4.5880 c6         1 AD0       0.115300
      5 C5           4.2900    -2.1550    -5.0810 c6         1 AD0       0.062300
      6 C6           3.6920    -3.2720    -6.0120 c          1 AD0       0.719000
      7 O1           2.4780    -2.1520    -1.8470 os         1 AD0      -0.422000
      8 O2           5.3620    -1.9300    -1.6100 oh         1 AD0      -0.700000
      9 O3           5.2140    -4.8760    -3.9130 oh         1 AD0      -0.725000
     10 O4           6.5470    -3.0330    -5.6580 oh         1 AD0      -0.694000
     11 O5           3.4610    -1.7530    -3.9310 os         1 AD0      -0.522000
     12 O6           3.3370    -2.9190    -7.1290 o          1 AD0      -0.712500
     13 C7          -0.0550    -0.1600    -0.1400 c6         1 AD0       0.395300
     14 O60          3.1480    -4.2190    -5.4550 o          1 AD0      -0.712500
     15 C8           0.8260     0.4060    -1.3040 c6         1 AD0       0.062300
     16 C9           0.7390    -0.5040    -2.5650 c6         1 AD0       0.119300
     17 C10          1.0770    -1.9850    -2.1900 c6         1 AD0       0.131300
     18 C11          0.1590    -2.4500    -1.0240 c6         1 AD0       0.018300
     19 C12          0.4370    -3.9520    -0.6780 c          1 AD0       0.742000
     20 O8           0.4540     1.7570    -1.6660 oh         1 AD0      -0.763000
     21 O9           1.6010     0.0240    -3.5910 oh         1 AD0      -0.754000
     22 O10          0.2720    -1.5400     0.1210 os         1 AD0      -0.398000
     23 O11         -0.3950    -4.7420    -1.1060 o          1 AD0      -0.719000
     24 OAP          1.0000    -4.1930     0.3840 o          1 AD0      -0.719000
     25 H1           2.8560    -3.6510    -3.2280 h2         1 AD0       0.083700
     26 H2           4.6030    -3.8870    -1.5450 h1         1 AD0       0.076700
     27 H3           6.6720    -3.7070    -3.0160 h1         1 AD0       0.009700
     28 HA           6.1120    -2.2770    -1.0760 ho         1 AD0       0.472000
     29 H4           6.1840    -1.6230    -4.1870 h1         1 AD0       0.013700
     30 HB           4.3870    -4.7260    -4.4580 ho         1 AD0       0.530000
     31 H5           4.3960    -1.2690    -5.7220 h1         1 AD0       0.057700
     32 HC           6.7320    -3.9760    -5.4370 ho         1 AD0       0.469000
     33 H9           0.8440    -2.6200    -3.0590 h1         1 AD0       0.085700
     34 H7           1.8690     0.3920    -0.9520 h1         1 AD0       0.071700
     35 H8          -0.3020    -0.4900    -2.9240 h1         1 AD0       0.058700
     36 HE           0.8240     1.8660    -2.5780 ho         1 AD0       0.517000
     37 HF           2.3650    -0.6250    -3.6660 ho         1 AD0       0.551000
     38 H10         -0.8800    -2.4130    -1.3820 h1         1 AD0       0.033700
     39 O7          -1.4410    -0.0660    -0.4690 oh         1 AD0      -0.764000
     40 HD          -1.4950     0.8180    -0.9010 ho         1 AD0       0.508000
     41 H6           0.1420     0.4300     0.7680 h2         1 AD0       0.047700
@<TRIPOS>BOND
     1     1     2 1   
     2     1     7 1   
     3     1    11 1   
     4     1    25 1   
     5     2     3 1   
     6     2     8 1   
     7     2    26 1   
     8     3     4 1   
     9     3     9 1   
    10     3    27 1   
    11     4     5 1   
    12     4    10 1   
    13     4    29 1   
    14     5     6 1   
    15     5    11 1   
    16     5    31 1   
    17     6    12 1   
    18     6    14 1   
    19     7    17 1   
    20     8    28 1   
    21     9    30 1   
    22    10    32 1   
    23    13    15 1   
    24    13    22 1   
    25    13    39 1   
    26    13    41 1   
    27    15    16 1   
    28    15    20 1   
    29    15    34 1   
    30    16    17 1   
    31    16    21 1   
    32    16    35 1   
    33    17    18 1   
    34    17    33 1   
    35    18    19 1   
    36    18    22 1   
    37    18    38 1   
    38    19    23 1   
    39    19    24 1   
    40    20    36 1   
    41    21    37 1   
    42    39    40 1   
@<TRIPOS>SUBSTRUCTURE
     1 AD0         1 TEMP              0 ****  ****    0 ROOT
