@<TRIPOS>MOLECULE
AD3
   33    35     1     0     0
SMALL
No Charge or Current Charge


@<TRIPOS>ATOM
      1 O5           1.3550    -2.2040    -3.8690 oh         1 AD3      -0.702000
      2 C5           1.2590    -0.7800    -3.6710 c3         1 AD3       0.162600
      3 C4          -0.0510    -0.3960    -2.9280 c5         1 AD3       0.161300
      4 O4           0.0110    -0.8050    -1.5420 os         1 AD3      -0.424000
      5 C3          -0.3260     1.1350    -2.8230 c5         1 AD3       0.092300
      6 O3          -0.8010     1.7320    -4.0450 oh         1 AD3      -0.706000
      7 C2          -1.4500     1.1220    -1.7480 c5         1 AD3       0.094300
      8 O2          -2.6930     0.7990    -2.3900 oh         1 AD3      -0.705000
      9 C1          -0.9290    -0.0070    -0.7770 c5         1 AD3       0.315300
     10 N9          -0.2620     0.4220     0.4560 na         1 AD3      -0.208600
     11 C8           0.3890     1.6450     0.6740 cc         1 AD3       0.410700
     12 N7           0.8700     1.7350     1.9350 nd         1 AD3      -0.564100
     13 C7           0.5040     0.5110     2.5160 ca         1 AD3      -0.050600
     14 C6           0.7210    -0.0010     3.8190 ca         1 AD3       0.665900
     15 N6           1.3570     0.6550     4.7980 nv         1 AD3      -1.044900
     16 N1           0.2940    -1.1960     4.2310 nb         1 AD3      -0.779000
     17 C11         -0.3770    -1.9560     3.3220 ca         1 AD3       0.398900
     18 C10         -0.6370    -1.5340     1.9990 ca         1 AD3      -0.232000
     19 C9          -0.1720    -0.2670     1.6290 ca         1 AD3      -0.020200
     20 HO5          2.2310    -2.3790    -4.2860 ho         1 AD3       0.508000
     21 H5'1         1.2710    -0.2690    -4.6430 h1         1 AD3       0.027200
     22 H5'2         2.1170    -0.4120    -3.0930 h1         1 AD3       0.027200
     23 H4          -0.8920    -0.9100    -3.4130 h1         1 AD3       0.095700
     24 H3           0.5630     1.6640    -2.4480 h1         1 AD3       0.058700
     25 HO3         -0.0160     2.0660    -4.5450 ho         1 AD3       0.518000
     26 H2          -1.5300     2.0930    -1.2400 h1         1 AD3       0.074700
     27 HO2         -2.5570     1.1350    -3.3140 ho         1 AD3       0.527000
     28 H1          -1.7750    -0.6270    -0.4580 h2         1 AD3       0.114700
     29 H8           0.4800     2.4030    -0.0940 h5         1 AD3       0.070800
     30 HN61         1.1580     0.3160     5.7300 hn         1 AD3       0.483000
     31 HN62         1.4310     1.6590     4.6830 hn         1 AD3       0.483000
     32 H7          -0.7180    -2.9320     3.6660 h4         1 AD3       0.015100
     33 H6          -1.1750    -2.1760     1.3080 ha         1 AD3       0.131000
@<TRIPOS>BOND
     1     1     2 1   
     2     1    20 1   
     3     2     3 1   
     4     2    21 1   
     5     2    22 1   
     6     3     4 1   
     7     3     5 1   
     8     3    23 1   
     9     4     9 1   
    10     5     6 1   
    11     5     7 1   
    12     5    24 1   
    13     6    25 1   
    14     7     8 1   
    15     7     9 1   
    16     7    26 1   
    17     8    27 1   
    18     9    10 1   
    19     9    28 1   
    20    10    11 1   
    21    10    19 1   
    22    11    12 2   
    23    11    29 1   
    24    12    13 1   
    25    13    14 ar  
    26    13    19 ar  
    27    14    15 1   
    28    14    16 ar  
    29    15    30 1   
    30    15    31 1   
    31    16    17 ar  
    32    17    18 ar  
    33    17    32 1   
    34    18    19 ar  
    35    18    33 1   
@<TRIPOS>SUBSTRUCTURE
     1 AD3         1 TEMP              0 ****  ****    0 ROOT
