@<TRIPOS>MOLECULE
AD3
   33    35     1     0     0
SMALL
bcc


@<TRIPOS>ATOM
      1 O5           2.1130    -0.8160    -4.2320 oh         1 AD3      -0.579800
      2 C5           1.4310     0.2540    -3.6290 c3         1 AD3       0.139400
      3 C4           0.1230    -0.2480    -3.0710 c5         1 AD3       0.138100
      4 O4           0.3520    -1.1870    -2.0180 os         1 AD3      -0.377600
      5 C3          -0.7240     0.8530    -2.4380 c5         1 AD3       0.069100
      6 O3          -1.5030     1.4850    -3.4140 oh         1 AD3      -0.583800
      7 C2          -1.5410     0.0630    -1.4100 c5         1 AD3       0.071100
      8 O2          -2.5880    -0.6330    -2.0270 oh         1 AD3      -0.582800
      9 C1          -0.5100    -0.9650    -0.9470 c5         1 AD3       0.262800
     10 N9           0.2540    -0.4750     0.1960 na         1 AD3      -0.179300
     11 C8           1.5420    -0.0200     0.2270 cc         1 AD3       0.410700
     12 N7           1.9250     0.3500     1.4130 nd         1 AD3      -0.564100
     13 C7           0.8350     0.1260     2.2150 ca         1 AD3      -0.115900
     14 C6           0.6580     0.3380     3.5970 ca         1 AD3       0.731200
     15 N6           1.6710     0.8050     4.3690 nv         1 AD3      -0.934500
     16 N1          -0.5020     0.0400     4.1660 nb         1 AD3      -0.779000
     17 C11         -1.4990    -0.4640     3.4220 ca         1 AD3       0.464200
     18 C10         -1.4480    -0.7110     2.0680 ca         1 AD3      -0.315300
     19 C9          -0.2220    -0.3920     1.4740 ca         1 AD3      -0.020200
     20 HO5          2.9370    -0.4810    -4.5970 ho         1 AD3       0.409000
     21 H5'1         1.1980     1.0510    -4.3480 h1         1 AD3       0.027200
     22 H5'2         2.0180     0.7170    -2.8240 h1         1 AD3       0.027200
     23 H4          -0.4470    -0.7370    -3.8710 h1         1 AD3       0.095700
     24 H3          -0.0790     1.5700    -1.9140 h1         1 AD3       0.058700
     25 HO3         -1.8030     2.3330    -3.0720 ho         1 AD3       0.419000
     26 H2          -1.8990     0.6900    -0.5840 h1         1 AD3       0.074700
     27 HO2         -2.9710    -0.0550    -2.6980 ho         1 AD3       0.428000
     28 H1          -0.9860    -1.9010    -0.6400 h2         1 AD3       0.114700
     29 H8           2.1640     0.0050    -0.6530 h5         1 AD3       0.070800
     30 HN61         1.4260     1.1750     5.2720 hn         1 AD3       0.427800
     31 HN62         2.4350     1.2710     3.9090 hn         1 AD3       0.427800
     32 H7          -2.4130    -0.6850     3.9630 h4         1 AD3       0.015100
     33 H6          -2.2950    -1.1160     1.5340 ha         1 AD3       0.149000
@<TRIPOS>BOND
     1     1     2 1   
     2     1    20 1   
     3     2     3 1   
     4     2    21 1   
     5     2    22 1   
     6     3     4 1   
     7     3     5 1   
     8     3    23 1   
     9     4     9 1   
    10     5     6 1   
    11     5     7 1   
    12     5    24 1   
    13     6    25 1   
    14     7     8 1   
    15     7     9 1   
    16     7    26 1   
    17     8    27 1   
    18     9    10 1   
    19     9    28 1   
    20    10    11 1   
    21    10    19 1   
    22    11    12 2   
    23    11    29 1   
    24    12    13 1   
    25    13    14 ar  
    26    13    19 ar  
    27    14    15 1   
    28    14    16 ar  
    29    15    30 1   
    30    15    31 1   
    31    16    17 ar  
    32    17    18 ar  
    33    17    32 1   
    34    18    19 ar  
    35    18    33 1   
@<TRIPOS>SUBSTRUCTURE
     1 AD3         1 TEMP              0 ****  ****    0 ROOT
