@<TRIPOS>MOLECULE
AD5
   56    60     1     0     0
SMALL
bcc


@<TRIPOS>ATOM
      1 CAK          7.1490     1.4300     2.1240 c6         1 AD5      -0.092900
      2 CAG          5.8570     0.8970     2.7300 c6         1 AD5      -0.073400
      3 CAF          5.9310    -0.6260     2.9160 c6         1 AD5      -0.075400
      4 CAH          7.3630    -1.1000     3.2080 c6         1 AD5      -0.073400
      5 CAL          8.1470    -0.0250     3.9490 c6         1 AD5      -0.092900
      6 CBB          8.3580     1.2040     3.0490 c6         1 AD5       0.240500
      7 N6           8.6190     2.4020     3.8270 nu         1 AD5      -0.852900
      8 C6           9.7790     2.6750     4.4310 ca         1 AD5       0.810200
      9 N1          10.8230     1.8650     4.2520 nb         1 AD5      -0.870000
     10 C5           9.9450     3.8100     5.2490 ca         1 AD5      -0.274200
     11 N7           9.0990     4.8210     5.6330 nc         1 AD5      -0.543100
     12 C8           9.8280     5.5740     6.4030 cd         1 AD5       0.386700
     13 N9          11.1070     5.1140     6.5440 na         1 AD5      -0.371000
     14 C4          11.2050     3.9750     5.8070 ca         1 AD5       0.498800
     15 N3          12.2570     3.1810     5.6450 nb         1 AD5      -0.825000
     16 C2          11.9840     2.1470     4.8480 ca         1 AD5       0.972900
     17 N2          13.0400     1.3040     4.6520 nu         1 AD5      -0.735300
     18 CAV         13.1650     0.1160     3.9380 ca         1 AD5       0.159600
     19 CAB         14.4010    -0.5400     4.0180 ca         1 AD5      -0.148000
     20 CAD         14.6340    -1.7290     3.3600 ca         1 AD5      -0.144500
     21 CAA         12.1780    -0.4760     3.1550 ca         1 AD5      -0.148000
     22 CAC         12.4240    -1.6680     2.4800 ca         1 AD5      -0.144500
     23 CAW         13.6470    -2.3320     2.5680 ca         1 AD5       0.113600
     24 NBC         13.8950    -3.5620     1.9440 nh         1 AD5      -0.639000
     25 CAM         12.7870    -4.2000     1.2640 c6         1 AD5       0.156300
     26 CAI         13.1490    -5.6350     0.9230 c6         1 AD5       0.125900
     27 OAU         14.3250    -5.7150     0.1530 os         1 AD5      -0.400600
     28 CAJ         15.4050    -5.1200     0.8360 c6         1 AD5       0.125900
     29 CAN         15.1240    -3.6690     1.1710 c6         1 AD5       0.156300
     30 HAK1         7.3360     0.9210     1.1750 hc         1 AD5       0.052700
     31 HAK2         7.0640     2.4910     1.8780 hc         1 AD5       0.052700
     32 HAG1         5.6720     1.3870     3.6910 hc         1 AD5       0.040700
     33 HAG2         5.0090     1.1600     2.0950 hc         1 AD5       0.040700
     34 HBB          9.2370     1.0320     2.4240 h1         1 AD5       0.072700
     35 HAF1         5.2680    -0.9250     3.7320 hc         1 AD5       0.038700
     36 HAF2         5.5580    -1.1280     2.0200 hc         1 AD5       0.038700
     37 HAH1         7.3440    -2.0250     3.7860 hc         1 AD5       0.040700
     38 HAH2         7.8790    -1.3400     2.2730 hc         1 AD5       0.040700
     39 HAL1         7.5950     0.2750     4.8460 hc         1 AD5       0.052700
     40 HAL2         9.1120    -0.4000     4.2930 hc         1 AD5       0.052700
     41 H6           7.8390     2.9980     4.0560 hn         1 AD5       0.455800
     42 H8           9.4980     6.4750     6.8960 h5         1 AD5       0.064800
     43 H9          11.8320     5.5380     7.1010 hn         1 AD5       0.315700
     44 H2          13.8650     1.5890     5.1570 hn         1 AD5       0.452800
     45 HAB         15.1940    -0.1150     4.6240 ha         1 AD5       0.145500
     46 HAA         11.2130    -0.0080     3.0580 ha         1 AD5       0.145500
     47 HAD         15.6000    -2.2000     3.4850 ha         1 AD5       0.130000
     48 HAC         11.6230    -2.0670     1.8730 ha         1 AD5       0.130000
     49 HAM1        11.9130    -4.2210     1.9180 h1         1 AD5       0.045450
     50 HAM2        12.4970    -3.6610     0.3480 h1         1 AD5       0.045450
     51 HAN1        15.0620    -3.0750     0.2460 h1         1 AD5       0.045450
     52 HAN2        15.9690    -3.2840     1.7410 h1         1 AD5       0.045450
     53 HAI1        13.2590    -6.2090     1.8530 h1         1 AD5       0.051700
     54 HAI2        12.3440    -6.0880     0.3420 h1         1 AD5       0.051700
     55 HAJ1        15.6230    -5.6690     1.7640 h1         1 AD5       0.051700
     56 HAJ2        16.2810    -5.1860     0.1900 h1         1 AD5       0.051700
@<TRIPOS>BOND
     1     1     2 1   
     2     1     6 1   
     3     1    30 1   
     4     1    31 1   
     5     2     3 1   
     6     2    32 1   
     7     2    33 1   
     8     3     4 1   
     9     3    35 1   
    10     3    36 1   
    11     4     5 1   
    12     4    37 1   
    13     4    38 1   
    14     5     6 1   
    15     5    39 1   
    16     5    40 1   
    17     6     7 1   
    18     6    34 1   
    19     7     8 1   
    20     7    41 1   
    21     8     9 ar  
    22     8    10 ar  
    23     9    16 ar  
    24    10    11 1   
    25    10    14 ar  
    26    11    12 2   
    27    12    13 1   
    28    12    42 1   
    29    13    14 1   
    30    13    43 1   
    31    14    15 ar  
    32    15    16 ar  
    33    16    17 1   
    34    17    18 1   
    35    17    44 1   
    36    18    19 ar  
    37    18    21 ar  
    38    19    20 ar  
    39    19    45 1   
    40    20    23 ar  
    41    20    47 1   
    42    21    22 ar  
    43    21    46 1   
    44    22    23 ar  
    45    22    48 1   
    46    23    24 1   
    47    24    25 1   
    48    24    29 1   
    49    25    26 1   
    50    25    49 1   
    51    25    50 1   
    52    26    27 1   
    53    26    53 1   
    54    26    54 1   
    55    27    28 1   
    56    28    29 1   
    57    28    55 1   
    58    28    56 1   
    59    29    51 1   
    60    29    52 1   
@<TRIPOS>SUBSTRUCTURE
     1 AD5         1 TEMP              0 ****  ****    0 ROOT
