@<TRIPOS>MOLECULE
AD5
   56    60     1     0     0
SMALL
No Charge or Current Charge


@<TRIPOS>ATOM
      1 CAK          6.9130     1.3330     2.1970 c6         1 AD5      -0.092900
      2 CAG          5.5880     1.0350     2.9440 c6         1 AD5      -0.073400
      3 CAF          5.5320    -0.4360     3.4470 c6         1 AD5      -0.075400
      4 CAH          6.9300    -1.0150     3.8100 c6         1 AD5      -0.073400
      5 CAL          7.9090     0.0990     4.2520 c6         1 AD5      -0.092900
      6 CBB          8.1650     1.1240     3.1040 c6         1 AD5       0.240500
      7 N6           8.5840     2.4160     3.6720 nu         1 AD5      -0.908100
      8 C6           9.7970     2.6700     4.3000 ca         1 AD5       0.481900
      9 N1          10.8100     1.8070     4.1130 nb         1 AD5      -0.344000
     10 C5           9.9560     3.8070     5.1190 ca         1 AD5      -0.143600
     11 N7           9.0390     4.8050     5.4390 nc         1 AD5      -0.543100
     12 C8           9.7610     5.6000     6.2490 cd         1 AD5       0.386700
     13 N9          11.0730     5.1470     6.4490 na         1 AD5      -0.421300
     14 C4          11.1720     4.0010     5.7160 ca         1 AD5       0.170500
     15 N3          12.2000     3.1540     5.5460 nb         1 AD5      -0.299000
     16 C2          11.9620     2.1020     4.7400 ca         1 AD5       0.446900
     17 N2          13.0250     1.2230     4.6130 nu         1 AD5      -0.928900
     18 CAV         13.2610     0.0700     3.8550 ca         1 AD5       0.298000
     19 CAB         14.1790    -0.8770     4.3400 ca         1 AD5      -0.130000
     20 CAD         14.4550    -2.0490     3.6100 ca         1 AD5      -0.126500
     21 CAA         12.6410    -0.1620     2.6120 ca         1 AD5      -0.130000
     22 CAC         12.9170    -1.3340     1.8820 ca         1 AD5      -0.126500
     23 CAW         13.8270    -2.2920     2.3740 ca         1 AD5       0.252000
     24 NBC         14.1130    -3.4780     1.6520 nh         1 AD5      -0.777400
     25 CAM         13.1160    -4.0670     0.6970 c6         1 AD5       0.156300
     26 CAI         13.3800    -5.5780     0.4220 c6         1 AD5       0.149100
     27 OAU         14.7550    -5.7970     0.0280 os         1 AD5      -0.447000
     28 CAJ         15.6950    -5.3720     1.0420 c6         1 AD5       0.149100
     29 CAN         15.5340    -3.8520     1.3460 c6         1 AD5       0.156300
     30 HAK1         6.9850     0.6550     1.3350 hc         1 AD5       0.052700
     31 HAK2         6.8970     2.3460     1.7740 hc         1 AD5       0.052700
     32 HAG1         5.4910     1.7210     3.7970 hc         1 AD5       0.040700
     33 HAG2         4.7290     1.2370     2.2890 hc         1 AD5       0.040700
     34 HBB          8.9630     0.7310     2.4540 h1         1 AD5       0.072700
     35 HAF1         4.8700    -0.4880     4.3220 hc         1 AD5       0.038700
     36 HAF2         5.0700    -1.0740     2.6810 hc         1 AD5       0.038700
     37 HAH1         6.8280    -1.7690     4.6030 hc         1 AD5       0.040700
     38 HAH2         7.3500    -1.5390     2.9400 hc         1 AD5       0.040700
     39 HAL1         7.4920     0.6060     5.1330 hc         1 AD5       0.052700
     40 HAL2         8.8620    -0.3430     4.5730 hc         1 AD5       0.052700
     41 H6           7.8670     3.0990     3.9110 hn         1 AD5       0.511000
     42 H8           9.4040     6.5080     6.7230 h5         1 AD5       0.064800
     43 H9          11.7860     5.5840     7.0160 hn         1 AD5       0.366000
     44 H2          13.7570     1.4250     5.2920 hn         1 AD5       0.508000
     45 HAB         14.6740    -0.7150     5.2940 ha         1 AD5       0.127500
     46 HAA         11.9580     0.5670     2.1910 ha         1 AD5       0.127500
     47 HAD         15.1520    -2.7760     4.0170 ha         1 AD5       0.112000
     48 HAC         12.4290    -1.4810     0.9230 ha         1 AD5       0.112000
     49 HAM1        12.0980    -3.9630     1.0990 h1         1 AD5       0.045450
     50 HAM2        13.1490    -3.5240    -0.2600 h1         1 AD5       0.045450
     51 HAN1        15.8870    -3.2800     0.4750 h1         1 AD5       0.045450
     52 HAN2        16.1970    -3.5980     2.1850 h1         1 AD5       0.045450
     53 HAI1        13.1670    -6.1650     1.3270 h1         1 AD5       0.051700
     54 HAI2        12.7150    -5.9330    -0.3770 h1         1 AD5       0.051700
     55 HAJ1        15.5250    -5.9550     1.9590 h1         1 AD5       0.051700
     56 HAJ2        16.7170    -5.5760     0.6950 h1         1 AD5       0.051700
@<TRIPOS>BOND
     1     1     2 1   
     2     1     6 1   
     3     1    30 1   
     4     1    31 1   
     5     2     3 1   
     6     2    32 1   
     7     2    33 1   
     8     3     4 1   
     9     3    35 1   
    10     3    36 1   
    11     4     5 1   
    12     4    37 1   
    13     4    38 1   
    14     5     6 1   
    15     5    39 1   
    16     5    40 1   
    17     6     7 1   
    18     6    34 1   
    19     7     8 1   
    20     7    41 1   
    21     8     9 ar  
    22     8    10 ar  
    23     9    16 ar  
    24    10    11 1   
    25    10    14 ar  
    26    11    12 2   
    27    12    13 1   
    28    12    42 1   
    29    13    14 1   
    30    13    43 1   
    31    14    15 ar  
    32    15    16 ar  
    33    16    17 1   
    34    17    18 1   
    35    17    44 1   
    36    18    19 ar  
    37    18    21 ar  
    38    19    20 ar  
    39    19    45 1   
    40    20    23 ar  
    41    20    47 1   
    42    21    22 ar  
    43    21    46 1   
    44    22    23 ar  
    45    22    48 1   
    46    23    24 1   
    47    24    25 1   
    48    24    29 1   
    49    25    26 1   
    50    25    49 1   
    51    25    50 1   
    52    26    27 1   
    53    26    53 1   
    54    26    54 1   
    55    27    28 1   
    56    28    29 1   
    57    28    55 1   
    58    28    56 1   
    59    29    51 1   
    60    29    52 1   
@<TRIPOS>SUBSTRUCTURE
     1 AD5         1 TEMP              0 ****  ****    0 ROOT
