@<TRIPOS>MOLECULE
AD6
   27    28     1     0     0
SMALL
bcc


@<TRIPOS>ATOM
      1 NAI         12.1060     2.5380     6.6400 nc         1 AD6      -0.726000
      2 CAH         11.2610     3.6060     6.5890 cc         1 AD6       0.430200
      3 CAN         10.5300     3.7160     5.4570 cd         1 AD6      -0.152300
      4 SAL         10.9080     2.4210     4.3690 ss         1 AD6      -0.169300
      5 CAQ         12.0340     1.8270     5.5560 cd         1 AD6       0.708300
      6 NAK         12.8410     0.7540     5.3550 nu         1 AD6      -0.739300
      7 CAO         12.8330    -0.1700     4.3170 ca         1 AD6       0.189600
      8 CAE         11.6710    -0.5440     3.6460 ca         1 AD6      -0.185000
      9 CAG         11.7340    -1.4640     2.6120 ca         1 AD6      -0.055500
     10 CAD         14.0410    -0.7780     3.9630 ca         1 AD6      -0.185000
     11 CAF         14.0850    -1.7160     2.9530 ca         1 AD6      -0.055500
     12 CAP         12.9370    -2.0530     2.2400 ca         1 AD6      -0.178600
     13 CAM         13.0470    -3.0730     1.1550 c          1 AD6       0.681700
     14 OAB         13.9440    -3.8940     1.1420 o          1 AD6      -0.591100
     15 NAJ         12.0860    -3.0280     0.2030 ns         1 AD6      -0.573900
     16 CAA         12.0870    -3.9530    -0.9030 c3         1 AD6       0.090300
     17 BR           9.2500     4.9820     5.0260 br         1 AD6      -0.019100
     18 HAH         11.2020     4.2860     7.4260 h4         1 AD6       0.052100
     19 HAK         13.6070     0.7010     6.0070 hn         1 AD6       0.459800
     20 HAE         10.7020    -0.1690     3.9440 ha         1 AD6       0.144500
     21 HAD         14.9530    -0.5100     4.4840 ha         1 AD6       0.144500
     22 HAG         10.8040    -1.7420     2.1330 ha         1 AD6       0.147000
     23 HAF         15.0260    -2.1860     2.7010 ha         1 AD6       0.147000
     24 HAJ         11.5150    -2.2060     0.1310 hn         1 AD6       0.313500
     25 HAA1        11.1390    -3.8720    -1.4300 h1         1 AD6       0.041367
     26 HAA2        12.8960    -3.7610    -1.6100 h1         1 AD6       0.041367
     27 HAA3        12.1910    -4.9740    -0.5430 h1         1 AD6       0.041367
@<TRIPOS>BOND
     1     1     2 1   
     2     1     5 2   
     3     2     3 2   
     4     2    18 1   
     5     3     4 1   
     6     3    17 1   
     7     4     5 1   
     8     5     6 1   
     9     6     7 1   
    10     6    19 1   
    11     7     8 ar  
    12     7    10 ar  
    13     8     9 ar  
    14     8    20 1   
    15     9    12 ar  
    16     9    22 1   
    17    10    11 ar  
    18    10    21 1   
    19    11    12 ar  
    20    11    23 1   
    21    12    13 1   
    22    13    14 2   
    23    13    15 1   
    24    15    16 1   
    25    15    24 1   
    26    16    25 1   
    27    16    26 1   
    28    16    27 1   
@<TRIPOS>SUBSTRUCTURE
     1 AD6         1 TEMP              0 ****  ****    0 ROOT
