@<TRIPOS>MOLECULE
AD6
   27    28     1     0     0
SMALL
No Charge or Current Charge


@<TRIPOS>ATOM
      1 NAI         12.1420     2.4700     6.6710 nc         1 AD6      -0.726000
      2 CAH         11.3460     3.5840     6.8050 cc         1 AD6       0.364900
      3 CAN         10.5330     3.8580     5.7300 cd         1 AD6      -0.231900
      4 SAL         10.7390     2.6940     4.4400 ss         1 AD6      -0.024400
      5 CAQ         11.9020     1.9090     5.5110 cd         1 AD6       0.708300
      6 NAK         12.6850     0.8460     5.2400 nu         1 AD6      -0.932900
      7 CAO         12.7630    -0.0820     4.2060 ca         1 AD6       0.328000
      8 CAE         11.6780    -0.3600     3.3580 ca         1 AD6      -0.167000
      9 CAG         11.7970    -1.3120     2.3300 ca         1 AD6      -0.037500
     10 CAD         13.9620    -0.7840     4.0280 ca         1 AD6      -0.167000
     11 CAF         14.0910    -1.7360     3.0020 ca         1 AD6      -0.037500
     12 CAP         13.0120    -2.0120     2.1340 ca         1 AD6      -0.178600
     13 CAM         13.1860    -3.0440     1.0390 c          1 AD6       0.614700
     14 OAB         14.2340    -3.6550     0.8810 o          1 AD6      -0.591100
     15 NAJ         12.1030    -3.2710     0.2170 ns         1 AD6      -0.506900
     16 CAA         12.0920    -4.2300    -0.8900 c3         1 AD6       0.090300
     17 Br           9.3160     5.2840     5.5300 br         1 AD6      -0.019100
     18 HAH         11.4110     4.1600     7.7190 h4         1 AD6       0.052100
     19 HAK         13.4050     0.7740     5.9510 hn         1 AD6       0.515000
     20 HAE         10.7250     0.1350     3.4980 ha         1 AD6       0.126500
     21 HAD         14.8080    -0.5890     4.6820 ha         1 AD6       0.126500
     22 HAG         10.9300    -1.4960     1.6990 ha         1 AD6       0.129000
     23 HAF         15.0390    -2.2590     2.8860 ha         1 AD6       0.129000
     24 HAJ         11.2660    -2.7330     0.3980 hn         1 AD6       0.313500
     25 HAA1        11.1100    -4.2140    -1.3800 h1         1 AD6       0.041367
     26 HAA2        12.8660    -3.9610    -1.6200 h1         1 AD6       0.041367
     27 HAA3        12.2880    -5.2400    -0.5060 h1         1 AD6       0.041367
@<TRIPOS>BOND
     1     1     2 1   
     2     1     5 2   
     3     2     3 2   
     4     2    18 1   
     5     3     4 1   
     6     3    17 1   
     7     4     5 1   
     8     5     6 1   
     9     6     7 1   
    10     6    19 1   
    11     7     8 ar  
    12     7    10 ar  
    13     8     9 ar  
    14     8    20 1   
    15     9    12 ar  
    16     9    22 1   
    17    10    11 ar  
    18    10    21 1   
    19    11    12 ar  
    20    11    23 1   
    21    12    13 1   
    22    13    14 2   
    23    13    15 1   
    24    15    16 1   
    25    15    24 1   
    26    16    25 1   
    27    16    26 1   
    28    16    27 1   
@<TRIPOS>SUBSTRUCTURE
     1 AD6         1 TEMP              0 ****  ****    0 ROOT
