@<TRIPOS>MOLECULE
AD7
   68    69     1     0     0
SMALL
No Charge or Current Charge


@<TRIPOS>ATOM
      1 CBA          7.4610     0.0720    -0.2320 c3         1 AD7      -0.075400
      2 CAZ          6.2910    -0.7680     0.3250 c3         1 AD7      -0.075400
      3 CAY          4.9070    -0.2560    -0.1310 c3         1 AD7      -0.073400
      4 CAX          3.7380    -1.0960     0.4270 c3         1 AD7      -0.074400
      5 CAW          2.3550    -0.5810    -0.0290 c3         1 AD7      -0.080400
      6 CAV          1.1860    -1.4150     0.5290 c3         1 AD7       0.161600
      7 OAK         -0.0260    -0.8280     0.0400 os         1 AD7      -0.431000
      8 CAJ         -1.2570    -1.4160     0.4990 c6         1 AD7       0.394300
      9 OAS         -1.3510    -2.7430    -0.0580 os         1 AD7      -0.464000
     10 CAR         -2.5210    -3.4710     0.3880 c6         1 AD7       0.147300
     11 CAT         -2.4300    -4.9460    -0.1250 c3         1 AD7       0.168600
     12 OAU         -1.2560    -5.6400     0.3450 oh         1 AD7      -0.707000
     13 CAP         -3.8290    -2.7530    -0.0760 c6         1 AD7       0.142300
     14 OAQ         -4.0130    -2.7320    -1.4990 oh         1 AD7      -0.684000
     15 CAN         -3.8280    -1.2710     0.4010 c6         1 AD7       0.151500
     16 NAO         -5.0180    -0.5770    -0.1850 n8         1 AD7      -0.976200
     17 CAL         -2.4760    -0.5530     0.0400 c6         1 AD7       0.157300
     18 OAM         -2.4220     0.7840     0.6200 os         1 AD7      -0.495000
     19 CAA         -2.7910     1.8580    -0.2660 c6         1 AD7       0.392300
     20 CAB         -3.0400     3.1560     0.5430 c6         1 AD7      -0.133400
     21 OAI         -1.7280     2.0640    -1.2260 os         1 AD7      -0.455000
     22 CAE         -0.4650     2.4790    -0.6510 c6         1 AD7       0.137300
     23 CAF          0.5920     2.4420    -1.7840 c3         1 AD7      -0.091100
     24 CAD         -0.6350     3.8810     0.0070 c6         1 AD7       0.147300
     25 OAH         -1.0320     4.8550    -0.9860 oh         1 AD7      -0.697000
     26 CAC         -1.7200     3.7250     1.1290 c6         1 AD7       0.181300
     27 OAG         -1.9740     4.9680     1.8060 oh         1 AD7      -0.642000
     28 HBA          7.3400     1.1150     0.0870 hc         1 AD7       0.037200
     29 C19          8.8440    -0.4400     0.2240 c3         1 AD7      -0.074400
     30 HBAA         7.4180     0.0660    -1.3290 hc         1 AD7       0.037200
     31 HAZ          6.4120    -1.8110     0.0060 hc         1 AD7       0.037200
     32 HAZA         6.3340    -0.7620     1.4220 hc         1 AD7       0.037200
     33 HAY          4.7870     0.7870     0.1890 hc         1 AD7       0.038200
     34 HAYA         4.8650    -0.2620    -1.2270 hc         1 AD7       0.038200
     35 HAX          3.8570    -2.1380     0.1070 hc         1 AD7       0.039200
     36 HAXA         3.7800    -1.0900     1.5240 hc         1 AD7       0.039200
     37 HAW          2.2340     0.4610     0.2910 hc         1 AD7       0.050200
     38 HAWA         2.3090    -0.5900    -1.1250 hc         1 AD7       0.050200
     39 HAV          1.2830    -2.4570     0.1930 h1         1 AD7       0.032200
     40 HAVA         1.2120    -1.3970     1.6260 h1         1 AD7       0.032200
     41 HAJ         -1.2450    -1.4750     1.5980 h2         1 AD7       0.020700
     42 HAR         -2.5110    -3.5040     1.4880 h1         1 AD7       0.046700
     43 HAT         -3.3330    -5.4780     0.2050 h1         1 AD7       0.026700
     44 HATA        -2.4420    -4.9340    -1.2230 h1         1 AD7       0.026700
     45 HOAU        -1.2440    -6.5180    -0.1020 ho         1 AD7       0.505000
     46 HAP         -4.6840    -3.2640     0.3910 h1         1 AD7       0.029700
     47 HOAQ        -4.5310    -1.8960    -1.6240 ho         1 AD7       0.498000
     48 HAN         -3.9480    -1.2570     1.4950 h1         1 AD7       0.022700
     49 HNAO        -5.8720    -1.0360     0.1590 hn         1 AD7       0.396000
     50 HNAA        -5.0850     0.3550     0.2400 hn         1 AD7       0.396000
     51 HAL         -2.4000    -0.4770    -1.0550 h1         1 AD7       0.104700
     52 HAA         -3.7160     1.5980    -0.8030 h2         1 AD7       0.086700
     53 HAB         -3.5200     3.8980    -0.1070 hc         1 AD7       0.066200
     54 HABA        -3.7530     2.9470     1.3510 hc         1 AD7       0.066200
     55 HAE         -0.1540     1.7570     0.1180 h1         1 AD7       0.055700
     56 HAF          0.3180     3.0950    -2.6210 hc         1 AD7       0.044700
     57 HAFA         1.5730     2.7610    -1.4140 hc         1 AD7       0.044700
     58 HAFB         0.7030     1.4240    -2.1770 hc         1 AD7       0.044700
     59 HAD          0.3170     4.1770     0.4730 h1         1 AD7       0.040700
     60 HOAH        -1.6430     4.3750    -1.5900 ho         1 AD7       0.501000
     61 HAC         -1.3350     2.9960     1.8580 h1         1 AD7       0.038700
     62 HOAG        -2.6020     4.7720     2.5340 ho         1 AD7       0.438000
     63 H35          8.8920    -0.4330     1.3200 hc         1 AD7       0.036200
     64 H36          8.9700    -1.4820    -0.0960 hc         1 AD7       0.036200
     65 C20         10.0110     0.3980    -0.3330 c3         1 AD7      -0.088100
     66 H37         10.9700    -0.0030     0.0170 hc         1 AD7       0.031367
     67 H38         10.0130     0.3820    -1.4290 hc         1 AD7       0.031367
     68 H39          9.9340     1.4400    -0.0010 hc         1 AD7       0.031367
@<TRIPOS>BOND
     1     1     2 1   
     2     1    28 1   
     3     1    29 1   
     4     1    30 1   
     5     2     3 1   
     6     2    31 1   
     7     2    32 1   
     8     3     4 1   
     9     3    33 1   
    10     3    34 1   
    11     4     5 1   
    12     4    35 1   
    13     4    36 1   
    14     5     6 1   
    15     5    37 1   
    16     5    38 1   
    17     6     7 1   
    18     6    39 1   
    19     6    40 1   
    20     7     8 1   
    21     8     9 1   
    22     8    17 1   
    23     8    41 1   
    24     9    10 1   
    25    10    11 1   
    26    10    13 1   
    27    10    42 1   
    28    11    12 1   
    29    11    43 1   
    30    11    44 1   
    31    12    45 1   
    32    13    14 1   
    33    13    15 1   
    34    13    46 1   
    35    14    47 1   
    36    15    16 1   
    37    15    17 1   
    38    15    48 1   
    39    16    49 1   
    40    16    50 1   
    41    17    18 1   
    42    17    51 1   
    43    18    19 1   
    44    19    20 1   
    45    19    21 1   
    46    19    52 1   
    47    20    26 1   
    48    20    53 1   
    49    20    54 1   
    50    21    22 1   
    51    22    23 1   
    52    22    24 1   
    53    22    55 1   
    54    23    56 1   
    55    23    57 1   
    56    23    58 1   
    57    24    25 1   
    58    24    26 1   
    59    24    59 1   
    60    25    60 1   
    61    26    27 1   
    62    26    61 1   
    63    27    62 1   
    64    29    63 1   
    65    29    64 1   
    66    29    65 1   
    67    65    66 1   
    68    65    67 1   
    69    65    68 1   
@<TRIPOS>SUBSTRUCTURE
     1 AD7         1 TEMP              0 ****  ****    0 ROOT
