@<TRIPOS>MOLECULE
AD7
   68    69     1     0     0
SMALL
abcg2


@<TRIPOS>ATOM
      1 CBA          7.3120     0.0100    -0.2490 c3         1 AD7      -0.075400
      2 CAZ          6.1080    -0.7230     0.3290 c3         1 AD7      -0.075400
      3 CAY          4.7790    -0.2510    -0.2460 c3         1 AD7      -0.073400
      4 CAX          3.5830    -0.9990     0.3280 c3         1 AD7      -0.074400
      5 CAW          2.2520    -0.5210    -0.2390 c3         1 AD7      -0.080400
      6 CAV          1.0910    -1.2980     0.3440 c3         1 AD7       0.161600
      7 OAK         -0.1250    -0.8270    -0.2160 os         1 AD7      -0.431000
      8 CAJ         -1.2540    -1.3810     0.3370 c6         1 AD7       0.394300
      9 OAS         -1.3860    -2.6890    -0.1650 os         1 AD7      -0.464000
     10 CAR         -2.4860    -3.3950     0.3640 c6         1 AD7       0.147300
     11 CAT         -2.4240    -4.8230    -0.1320 c3         1 AD7       0.168600
     12 OAU         -1.2940    -5.4490     0.4260 oh         1 AD7      -0.707000
     13 CAP         -3.7950    -2.6950    -0.0100 c6         1 AD7       0.142300
     14 OAQ         -4.0140    -2.6650    -1.4000 oh         1 AD7      -0.684000
     15 CAN         -3.7300    -1.2630     0.5130 c6         1 AD7       0.151500
     16 NAO         -4.9290    -0.5190     0.1690 n8         1 AD7      -0.976200
     17 CAL         -2.4860    -0.5590    -0.0360 c6         1 AD7       0.157300
     18 OAM         -2.3880     0.7280     0.5400 os         1 AD7      -0.495000
     19 CAA         -2.6460     1.8060    -0.3210 c6         1 AD7       0.392300
     20 CAB         -2.9320     3.0360     0.5300 c6         1 AD7      -0.133400
     21 OAI         -1.5990     2.0220    -1.2190 os         1 AD7      -0.455000
     22 CAE         -0.3900     2.5090    -0.6560 c6         1 AD7       0.137300
     23 CAF          0.6220     2.6010    -1.7790 c3         1 AD7      -0.091100
     24 CAD         -0.6190     3.8390     0.0660 c6         1 AD7       0.147300
     25 OAH         -1.0790     4.8570    -0.7900 oh         1 AD7      -0.697000
     26 CAC         -1.6610     3.6060     1.1490 c6         1 AD7       0.181300
     27 OAG         -1.8950     4.8160     1.8300 oh         1 AD7      -0.642000
     28 HBA          7.2040     1.0860    -0.0720 hc         1 AD7       0.037200
     29 C19          8.6400    -0.4650     0.3280 c3         1 AD7      -0.074400
     30 HBAA         7.3250    -0.1160    -1.3380 hc         1 AD7       0.037200
     31 HAZ          6.2180    -1.7980     0.1510 hc         1 AD7       0.037200
     32 HAZA         6.0960    -0.5980     1.4180 hc         1 AD7       0.037200
     33 HAY          4.6620     0.8220    -0.0590 hc         1 AD7       0.038200
     34 HAYA         4.7910    -0.3680    -1.3350 hc         1 AD7       0.038200
     35 HAX          3.6990    -2.0710     0.1340 hc         1 AD7       0.039200
     36 HAXA         3.5770    -0.8870     1.4180 hc         1 AD7       0.039200
     37 HAW          2.1250     0.5440    -0.0280 hc         1 AD7       0.050200
     38 HAWA         2.2540    -0.6290    -1.3280 hc         1 AD7       0.050200
     39 HAV          1.2210    -2.3680     0.1430 h1         1 AD7       0.032200
     40 HAVA         1.0680    -1.1770     1.4360 h1         1 AD7       0.032200
     41 HAJ         -1.1690    -1.4210     1.4410 h2         1 AD7       0.020700
     42 HAR         -2.4340    -3.4180     1.4650 h1         1 AD7       0.046700
     43 HAT         -3.3550    -5.3220     0.1690 h1         1 AD7       0.026700
     44 HATA        -2.3880    -4.8360    -1.2290 h1         1 AD7       0.026700
     45 HOAU        -1.2650    -6.3530     0.1010 ho         1 AD7       0.505000
     46 HAP         -4.6160    -3.2120     0.5090 h1         1 AD7       0.029700
     47 HOAQ        -4.3250    -3.5280    -1.6880 ho         1 AD7       0.498000
     48 HAN         -3.5970    -1.3530     1.6040 h1         1 AD7       0.022700
     49 HNAO        -5.7430    -1.0570     0.4410 hn         1 AD7       0.396000
     50 HNAA        -4.9690     0.3200     0.7350 hn         1 AD7       0.396000
     51 HAL         -2.5520    -0.4980    -1.1290 h1         1 AD7       0.104700
     52 HAA         -3.5130     1.5780    -0.9520 h2         1 AD7       0.086700
     53 HAB         -3.3990     3.7910    -0.1060 hc         1 AD7       0.066200
     54 HABA        -3.6590     2.7820     1.3060 hc         1 AD7       0.066200
     55 HAE         -0.0080     1.8020     0.0890 h1         1 AD7       0.055700
     56 HAF          0.2810     3.2430    -2.5930 hc         1 AD7       0.044700
     57 HAFA         1.5680     2.9950    -1.4050 hc         1 AD7       0.044700
     58 HAFB         0.8200     1.6130    -2.1950 hc         1 AD7       0.044700
     59 HAD          0.3320     4.1230     0.5440 h1         1 AD7       0.040700
     60 HOAH        -0.3780     5.0770    -1.4100 ho         1 AD7       0.501000
     61 HAC         -1.2300     2.8610     1.8320 h1         1 AD7       0.038700
     62 HOAG        -2.4760     4.6300     2.5750 ho         1 AD7       0.438000
     63 H35          8.6280    -0.3340     1.4150 hc         1 AD7       0.036200
     64 H36          8.7440    -1.5400     0.1550 hc         1 AD7       0.036200
     65 C20          9.8380     0.2670    -0.2590 c3         1 AD7      -0.088100
     66 H37         10.7760    -0.0890     0.1690 hc         1 AD7       0.031367
     67 H38          9.8950     0.1280    -1.3410 hc         1 AD7       0.031367
     68 H39          9.7760     1.3410    -0.0710 hc         1 AD7       0.031367
@<TRIPOS>BOND
     1     1     2 1   
     2     1    28 1   
     3     1    29 1   
     4     1    30 1   
     5     2     3 1   
     6     2    31 1   
     7     2    32 1   
     8     3     4 1   
     9     3    33 1   
    10     3    34 1   
    11     4     5 1   
    12     4    35 1   
    13     4    36 1   
    14     5     6 1   
    15     5    37 1   
    16     5    38 1   
    17     6     7 1   
    18     6    39 1   
    19     6    40 1   
    20     7     8 1   
    21     8     9 1   
    22     8    17 1   
    23     8    41 1   
    24     9    10 1   
    25    10    11 1   
    26    10    13 1   
    27    10    42 1   
    28    11    12 1   
    29    11    43 1   
    30    11    44 1   
    31    12    45 1   
    32    13    14 1   
    33    13    15 1   
    34    13    46 1   
    35    14    47 1   
    36    15    16 1   
    37    15    17 1   
    38    15    48 1   
    39    16    49 1   
    40    16    50 1   
    41    17    18 1   
    42    17    51 1   
    43    18    19 1   
    44    19    20 1   
    45    19    21 1   
    46    19    52 1   
    47    20    26 1   
    48    20    53 1   
    49    20    54 1   
    50    21    22 1   
    51    22    23 1   
    52    22    24 1   
    53    22    55 1   
    54    23    56 1   
    55    23    57 1   
    56    23    58 1   
    57    24    25 1   
    58    24    26 1   
    59    24    59 1   
    60    25    60 1   
    61    26    27 1   
    62    26    61 1   
    63    27    62 1   
    64    29    63 1   
    65    29    64 1   
    66    29    65 1   
    67    65    66 1   
    68    65    67 1   
    69    65    68 1   
@<TRIPOS>SUBSTRUCTURE
     1 AD7         1 TEMP              0 ****  ****    0 ROOT
