@<TRIPOS>MOLECULE
AD8
   38    41     1     0     0
SMALL
No Charge or Current Charge


@<TRIPOS>ATOM
      1 N            2.7090    -0.3470    -0.1630 na         1 AD8      -0.161500
      2 CAQ          3.5690     0.6740     0.1970 cc         1 AD8       0.404400
      3 NAP          4.2970     1.0610    -0.8420 nd         1 AD8      -0.671000
      4 CAO          3.8980     0.2650    -1.8960 cd         1 AD8       0.236900
      5 CAN          2.9220    -0.6110    -1.4980 cc         1 AD8      -0.233000
      6 CA           1.7400    -1.0260     0.7190 c3         1 AD8      -0.038400
      7 C            0.6890    -0.0680     1.3110 c          1 AD8       0.554100
      8 O            0.9810     0.6460     2.2640 o          1 AD8      -0.485100
      9 CAE         -0.7360    -0.0250     0.6680 c6         1 AD8      -0.144000
     10 CAF         -0.6320     0.1400    -0.8930 c6         1 AD8      -0.059400
     11 CAI         -1.6010     1.1540     1.2360 c6         1 AD8      -0.059400
     12 CAD         -1.4850    -1.3820     0.9170 c6         1 AD8      -0.059400
     13 CAC         -2.9050    -1.3580     0.2790 c6         1 AD8      -0.059033
     14 CAB         -2.7740    -1.1640    -1.2570 c6         1 AD8      -0.069733
     15 CAH         -3.7290    -0.1820     0.8790 c6         1 AD8      -0.069733
     16 CAJ         -3.0110     1.1660     0.5830 c6         1 AD8      -0.059033
     17 CAG         -2.8660     1.3540    -0.9540 c6         1 AD8      -0.069733
     18 CAA         -2.0430     0.1760    -1.5470 c6         1 AD8      -0.059033
     19 HAQ          3.6100     1.0770     1.2020 h5         1 AD8       0.052100
     20 HAO          4.3360     0.3650    -2.8820 h4         1 AD8       0.037100
     21 HAN          2.3860    -1.3720    -2.0520 h4         1 AD8       0.153000
     22 HA           1.2390    -1.8250     0.1620 h1         1 AD8       0.079700
     23 HAA          2.2790    -1.4890     1.5540 h1         1 AD8       0.079700
     24 HAF         -0.0870     1.0630    -1.1370 hc         1 AD8       0.046867
     25 HAFA        -0.0570    -0.6800    -1.3430 hc         1 AD8       0.046867
     26 HAI         -1.7030     1.0600     2.3260 hc         1 AD8       0.046867
     27 HAIA        -1.0990     2.1150     1.0550 hc         1 AD8       0.046867
     28 HAD         -0.9190    -2.2300     0.5090 hc         1 AD8       0.046867
     29 HADA        -1.5700    -1.5670     1.9980 hc         1 AD8       0.046867
     30 HAC         -3.4170    -2.3080     0.4870 hc         1 AD8       0.053700
     31 HAB         -2.2200    -2.0030    -1.7000 hc         1 AD8       0.043200
     32 HABA        -3.7680    -1.1660    -1.7270 hc         1 AD8       0.043200
     33 HAH         -4.7420    -0.1730     0.4530 hc         1 AD8       0.043200
     34 HAHA        -3.8500    -0.3180     1.9630 hc         1 AD8       0.043200
     35 HAJ         -3.6010     1.9950     0.9990 hc         1 AD8       0.053700
     36 HAG         -3.8570     1.4000    -1.4250 hc         1 AD8       0.043200
     37 HAGA        -2.3730     2.3110    -1.1750 hc         1 AD8       0.043200
     38 HAAA        -1.9410     0.3100    -2.6330 hc         1 AD8       0.053700
@<TRIPOS>BOND
     1     1     2 1   
     2     1     5 1   
     3     1     6 1   
     4     2     3 2   
     5     2    19 1   
     6     3     4 1   
     7     4     5 2   
     8     4    20 1   
     9     5    21 1   
    10     6     7 1   
    11     6    22 1   
    12     6    23 1   
    13     7     8 2   
    14     7     9 1   
    15     9    10 1   
    16     9    11 1   
    17     9    12 1   
    18    10    18 1   
    19    10    24 1   
    20    10    25 1   
    21    11    16 1   
    22    11    26 1   
    23    11    27 1   
    24    12    13 1   
    25    12    28 1   
    26    12    29 1   
    27    13    14 1   
    28    13    15 1   
    29    13    30 1   
    30    14    18 1   
    31    14    31 1   
    32    14    32 1   
    33    15    16 1   
    34    15    33 1   
    35    15    34 1   
    36    16    17 1   
    37    16    35 1   
    38    17    18 1   
    39    17    36 1   
    40    17    37 1   
    41    18    38 1   
@<TRIPOS>SUBSTRUCTURE
     1 AD8         1 TEMP              0 ****  ****    0 ROOT
