@<TRIPOS>MOLECULE
AD8
   38    41     1     0     0
SMALL
abcg2


@<TRIPOS>ATOM
      1 N            2.9360    -0.4770    -0.1340 na         1 AD8      -0.161500
      2 CAQ          3.8900    -0.3180     0.8080 cc         1 AD8       0.404400
      3 NAP          4.9990     0.1570     0.3040 nd         1 AD8      -0.671000
      4 CAO          4.7460     0.3310    -1.0280 cd         1 AD8       0.236900
      5 CAN          3.4680    -0.0490    -1.3190 cc         1 AD8      -0.233000
      6 CA           1.5720    -0.8620     0.0900 c3         1 AD8      -0.038400
      7 C            0.6840     0.3420     0.3950 c          1 AD8       0.554100
      8 O            1.1870     1.3810     0.7450 o          1 AD8      -0.485100
      9 CAE         -0.8080     0.1610     0.2180 c6         1 AD8      -0.144000
     10 CAF         -1.1010     0.1920    -1.3000 c6         1 AD8      -0.059400
     11 CAI         -1.5830     1.3010     0.8900 c6         1 AD8      -0.059400
     12 CAD         -1.2870    -1.1880     0.7880 c6         1 AD8      -0.059400
     13 CAC         -2.7900    -1.3490     0.5460 c6         1 AD8      -0.059033
     14 CAB         -3.0620    -1.3210    -0.9590 c6         1 AD8      -0.069733
     15 CAH         -3.5470    -0.2090     1.2280 c6         1 AD8      -0.069733
     16 CAJ         -3.0830     1.1270     0.6490 c6         1 AD8      -0.059033
     17 CAG         -3.3610     1.1590    -0.8550 c6         1 AD8      -0.069733
     18 CAA         -2.6030     0.0190    -1.5370 c6         1 AD8      -0.059033
     19 HAQ          3.7210    -0.5760     1.8430 h5         1 AD8       0.052100
     20 HAO          5.4930     0.7100    -1.7080 h4         1 AD8       0.037100
     21 HAN          2.9100    -0.0670    -2.2400 h4         1 AD8       0.153000
     22 HA           1.2050    -1.4230    -0.7700 h1         1 AD8       0.079700
     23 HAA          1.5240    -1.5460     0.9410 h1         1 AD8       0.079700
     24 HAF         -0.7630     1.1430    -1.7240 hc         1 AD8       0.046867
     25 HAFA        -0.5530    -0.6020    -1.8170 hc         1 AD8       0.046867
     26 HAI         -1.3730     1.3150     1.9640 hc         1 AD8       0.046867
     27 HAIA        -1.2560     2.2640     0.4900 hc         1 AD8       0.046867
     28 HAD         -0.7610    -2.0220     0.3140 hc         1 AD8       0.046867
     29 HADA        -1.0660    -1.2410     1.8590 hc         1 AD8       0.046867
     30 HAC         -3.1110    -2.3080     0.9620 hc         1 AD8       0.053700
     31 HAB         -2.5340    -2.1440    -1.4510 hc         1 AD8       0.043200
     32 HABA        -4.1290    -1.4690    -1.1510 hc         1 AD8       0.043200
     33 HAH         -4.6250    -0.3310     1.0810 hc         1 AD8       0.043200
     34 HAHA        -3.3740    -0.2340     2.3090 hc         1 AD8       0.043200
     35 HAJ         -3.6170     1.9480     1.1380 hc         1 AD8       0.053700
     36 HAG         -4.4350     1.0630    -1.0430 hc         1 AD8       0.043200
     37 HAGA        -3.0500     2.1220    -1.2750 hc         1 AD8       0.043200
     38 HAAA        -2.7920     0.0400    -2.6140 hc         1 AD8       0.053700
@<TRIPOS>BOND
     1     1     2 1   
     2     1     5 1   
     3     1     6 1   
     4     2     3 2   
     5     2    19 1   
     6     3     4 1   
     7     4     5 2   
     8     4    20 1   
     9     5    21 1   
    10     6     7 1   
    11     6    22 1   
    12     6    23 1   
    13     7     8 2   
    14     7     9 1   
    15     9    10 1   
    16     9    11 1   
    17     9    12 1   
    18    10    18 1   
    19    10    24 1   
    20    10    25 1   
    21    11    16 1   
    22    11    26 1   
    23    11    27 1   
    24    12    13 1   
    25    12    28 1   
    26    12    29 1   
    27    13    14 1   
    28    13    15 1   
    29    13    30 1   
    30    14    18 1   
    31    14    31 1   
    32    14    32 1   
    33    15    16 1   
    34    15    33 1   
    35    15    34 1   
    36    16    17 1   
    37    16    35 1   
    38    17    18 1   
    39    17    36 1   
    40    17    37 1   
    41    18    38 1   
@<TRIPOS>SUBSTRUCTURE
     1 AD8         1 TEMP              0 ****  ****    0 ROOT
