@<TRIPOS>MOLECULE
ADA
   22    22     1     0     0
SMALL
No Charge or Current Charge


@<TRIPOS>ATOM
      1 C1          20.8120     0.5220    27.4520 c6         1 ADA       0.383300
      2 C2          22.1390     1.2630    27.8720 c6         1 ADA       0.154300
      3 C3          22.6140     0.7930    29.2850 c6         1 ADA       0.130300
      4 C4          21.4550     0.9210    30.3240 c6         1 ADA       0.147300
      5 C5          20.2170     0.1370    29.8100 c6         1 ADA      -0.012700
      6 C6          19.0750     0.1550    30.8820 c          1 ADA       0.735000
      7 O1          20.9890    -0.8790    27.2270 oh         1 ADA      -0.741000
      8 O2          23.2170     1.1310    26.9130 oh         1 ADA      -0.725000
      9 O3          23.7370     1.5820    29.7210 oh         1 ADA      -0.729000
     10 O4          21.1370     2.3120    30.5210 oh         1 ADA      -0.756000
     11 O5          19.8200     0.6570    28.4940 os         1 ADA      -0.444000
     12 O6B         18.1380     0.9160    30.6680 o          1 ADA      -0.710000
     13 O6A         18.8710    -0.9090    31.4530 o          1 ADA      -0.710000
     14 H1          20.4260     0.9900    26.5330 h2         1 ADA       0.050700
     15 H2          21.8760     2.3280    27.9530 h1         1 ADA       0.066700
     16 H3          22.9040    -0.2670    29.2220 h1         1 ADA       0.040700
     17 H4          21.7830     0.4750    31.2740 h1         1 ADA       0.019700
     18 H5          20.5050    -0.9180    29.6980 h1         1 ADA       0.032700
     19 HO1         20.0750    -1.2330    27.1900 ho         1 ADA       0.504000
     20 HO2         24.0340     1.2880    27.4450 ho         1 ADA       0.505000
     21 HO3         23.3210     2.3060    30.2520 ho         1 ADA       0.494000
     22 HO4         20.2660     2.4560    30.0740 ho         1 ADA       0.564000
@<TRIPOS>BOND
     1     1     2 1   
     2     1     7 1   
     3     1    11 1   
     4     1    14 1   
     5     2     3 1   
     6     2     8 1   
     7     2    15 1   
     8     3     4 1   
     9     3     9 1   
    10     3    16 1   
    11     4     5 1   
    12     4    10 1   
    13     4    17 1   
    14     5     6 1   
    15     5    11 1   
    16     5    18 1   
    17     6    12 1   
    18     6    13 1   
    19     7    19 1   
    20     8    20 1   
    21     9    21 1   
    22    10    22 1   
@<TRIPOS>SUBSTRUCTURE
     1 ADA         1 TEMP              0 ****  ****    0 ROOT
