@<TRIPOS>MOLECULE
ADA
   22    22     1     0     0
SMALL
bcc


@<TRIPOS>ATOM
      1 C1          20.8990     0.2280    27.5300 c6         1 ADA       0.336900
      2 C2          22.0290     1.2030    27.8520 c6         1 ADA       0.131100
      3 C3          22.5070     0.9900    29.2830 c6         1 ADA       0.107100
      4 C4          21.3380     1.1090    30.2580 c6         1 ADA       0.124100
      5 C5          20.2220     0.1610    29.8180 c6         1 ADA      -0.035900
      6 C6          18.9100     0.3160    30.6320 c          1 ADA       0.945600
      7 O1          21.4170    -1.0640    27.4980 oh         1 ADA      -0.618800
      8 O2          23.0560     1.0290    26.9090 oh         1 ADA      -0.602800
      9 O3          23.5290     1.9320    29.5260 oh         1 ADA      -0.606800
     10 O4          20.9060     2.4420    30.3300 oh         1 ADA      -0.633800
     11 O5          19.8600     0.3710    28.4570 os         1 ADA      -0.397600
     12 O6B         18.8920     1.2160    31.5090 o          1 ADA      -0.815300
     13 O6A         17.9930    -0.4630    30.3480 o          1 ADA      -0.815300
     14 H1          20.4490     0.4920    26.5650 h2         1 ADA       0.050700
     15 H2          21.5980     2.2120    27.7780 h1         1 ADA       0.066700
     16 H3          22.8980    -0.0330    29.3700 h1         1 ADA       0.040700
     17 H4          21.6890     0.7530    31.2420 h1         1 ADA       0.019700
     18 H5          20.5840    -0.8670    29.9650 h1         1 ADA       0.032700
     19 HO1         20.7570    -1.6530    27.1160 ho         1 ADA       0.405000
     20 HO2         23.7620     1.6440    27.1330 ho         1 ADA       0.406000
     21 HO3         24.0350     1.6440    30.2920 ho         1 ADA       0.395000
     22 HO4         20.0830     2.3640    30.8550 ho         1 ADA       0.465000
@<TRIPOS>BOND
     1     1     2 1   
     2     1     7 1   
     3     1    11 1   
     4     1    14 1   
     5     2     3 1   
     6     2     8 1   
     7     2    15 1   
     8     3     4 1   
     9     3     9 1   
    10     3    16 1   
    11     4     5 1   
    12     4    10 1   
    13     4    17 1   
    14     5     6 1   
    15     5    11 1   
    16     5    18 1   
    17     6    12 1   
    18     6    13 1   
    19     7    19 1   
    20     8    20 1   
    21     9    21 1   
    22    10    22 1   
@<TRIPOS>SUBSTRUCTURE
     1 ADA         1 TEMP              0 ****  ****    0 ROOT
