@<TRIPOS>MOLECULE
ADB
   35    37     1     0     0
SMALL
No Charge or Current Charge


@<TRIPOS>ATOM
      1 C1          -0.3210     0.2010     3.5260 ca         1 ADB       0.121100
      2 O7          -0.6130     0.7570     2.2960 os         1 ADB      -0.319400
      3 C2           0.8590     0.5670     4.2070 ca         1 ADB       0.126500
      4 Cl2          1.9810     1.7330     3.5050 cl         1 ADB      -0.166500
      5 C3           1.1540    -0.0020     5.4590 ca         1 ADB      -0.098500
      6 C4           0.2730    -0.9340     6.0360 ca         1 ADB      -0.091000
      7 C5          -0.9050    -1.2980     5.3600 ca         1 ADB      -0.098500
      8 C6          -1.2040    -0.7330     4.1080 ca         1 ADB       0.126500
      9 Cl6         -2.6890    -1.2090     3.2820 cl         1 ADB      -0.166500
     10 C8          -0.1990     0.1830     1.1170 ca         1 ADB       0.435300
     11 N1          -0.5410     0.8170    -0.0210 nb         1 ADB      -0.312000
     12 C9          -0.1310     0.2280    -1.1510 ca         1 ADB       0.455900
     13 N5          -0.4570     0.9000    -2.3150 nu         1 ADB      -0.919900
     14 N2           0.5910    -0.8970    -1.2270 nb         1 ADB      -0.356000
     15 C10          0.8730    -1.4340    -0.0410 ca         1 ADB       0.462900
     16 N4           1.5900    -2.5720    -0.0480 nv         1 ADB      -1.057900
     17 N3           0.5160    -0.9640     1.1530 nb         1 ADB      -0.364000
     18 C11         -0.3370     0.6180    -3.6790 ca         1 ADB       0.343000
     19 C12         -0.3250    -0.6980    -4.1780 ca         1 ADB      -0.160000
     20 C13         -0.2180    -0.9370    -5.5610 ca         1 ADB      -0.041500
     21 C14         -0.1310     0.1430    -6.4590 ca         1 ADB      -0.055000
     22 C15         -0.1590     1.4600    -5.9650 ca         1 ADB      -0.041500
     23 C16         -0.2660     1.6920    -4.5820 ca         1 ADB      -0.160000
     24 C17         -0.0230    -0.0990    -7.8720 cg         1 ADB       0.330000
     25 N6           0.0570    -0.2890    -9.0210 n1         1 ADB      -0.459000
     26 H3           2.0650     0.2810     5.9810 ha         1 ADB       0.136000
     27 H4           0.5030    -1.3730     7.0050 ha         1 ADB       0.125000
     28 H5          -1.5870    -2.0190     5.8060 ha         1 ADB       0.136000
     29 HN5         -0.7960     1.8410    -2.1220 hn         1 ADB       0.520000
     30 HN41         1.6030    -3.1270     0.8040 hn         1 ADB       0.512000
     31 HN42         1.6660    -3.0840    -0.9230 hn         1 ADB       0.512000
     32 H12         -0.4160    -1.5430    -3.5060 ha         1 ADB       0.137000
     33 H13         -0.2100    -1.9610    -5.9300 ha         1 ADB       0.126000
     34 H15         -0.0980     2.3050    -6.6500 ha         1 ADB       0.126000
     35 H16         -0.2850     2.7130    -4.2140 ha         1 ADB       0.137000
@<TRIPOS>BOND
     1     1     2 1   
     2     1     3 ar  
     3     1     8 ar  
     4     2    10 1   
     5     3     4 1   
     6     3     5 ar  
     7     5     6 ar  
     8     5    26 1   
     9     6     7 ar  
    10     6    27 1   
    11     7     8 ar  
    12     7    28 1   
    13     8     9 1   
    14    10    11 ar  
    15    10    17 ar  
    16    11    12 ar  
    17    12    13 1   
    18    12    14 ar  
    19    13    18 1   
    20    13    29 1   
    21    14    15 ar  
    22    15    16 1   
    23    15    17 ar  
    24    16    30 1   
    25    16    31 1   
    26    18    19 ar  
    27    18    23 ar  
    28    19    20 ar  
    29    19    32 1   
    30    20    21 ar  
    31    20    33 1   
    32    21    22 ar  
    33    21    24 1   
    34    22    23 ar  
    35    22    34 1   
    36    23    35 1   
    37    24    25 3   
@<TRIPOS>SUBSTRUCTURE
     1 ADB         1 TEMP              0 ****  ****    0 ROOT
