@<TRIPOS>MOLECULE
ADB
   35    37     1     0     0
SMALL
bcc


@<TRIPOS>ATOM
      1 C1          -0.1660     0.2470     3.4120 ca         1 ADB       0.121100
      2 O7          -0.3780     0.8830     2.2250 os         1 ADB      -0.319400
      3 C2           1.0370     0.3990     4.0850 ca         1 ADB       0.034900
      4 CL2          2.2900     1.3190     3.3450 cl         1 ADB      -0.074900
      5 C3           1.2280    -0.1760     5.3310 ca         1 ADB      -0.116500
      6 C4           0.2060    -0.9230     5.8970 ca         1 ADB      -0.109000
      7 C5          -0.9990    -1.0960     5.2320 ca         1 ADB      -0.116500
      8 C6          -1.1740    -0.5140     3.9880 ca         1 ADB       0.034900
      9 CL6         -2.6520    -0.7170     3.1280 cl         1 ADB      -0.074900
     10 C8          -0.0980     0.2250     1.0870 ca         1 ADB       0.961300
     11 N1          -0.3900     0.9050     0.0030 nb         1 ADB      -0.838000
     12 C9          -0.1090     0.2430    -1.1270 ca         1 ADB       0.981900
     13 N5          -0.4120     0.9320    -2.2560 nu         1 ADB      -0.726300
     14 N2           0.4110    -0.9670    -1.1970 nb         1 ADB      -0.882000
     15 C10          0.6620    -1.5450    -0.0160 ca         1 ADB       0.988900
     16 N4           1.1890    -2.7620    -0.0200 nv         1 ADB      -0.947500
     17 N3           0.4170    -0.9760     1.1740 nb         1 ADB      -0.890000
     18 C11         -0.2810     0.6080    -3.5950 ca         1 ADB       0.204600
     19 C12          0.2340    -0.5990    -4.0820 ca         1 ADB      -0.178000
     20 C13          0.3160    -0.8100    -5.4450 ca         1 ADB      -0.059500
     21 C14         -0.1090     0.1630    -6.3480 ca         1 ADB      -0.055000
     22 C15         -0.6230     1.3680    -5.8660 ca         1 ADB      -0.059500
     23 C16         -0.7060     1.5830    -4.5090 ca         1 ADB      -0.178000
     24 C17         -0.0200    -0.0700    -7.7500 cg         1 ADB       0.240800
     25 N6           0.0530    -0.2580    -8.8850 n1         1 ADB      -0.369800
     26 H3           2.1690    -0.0490     5.8480 ha         1 ADB       0.154000
     27 H4           0.3500    -1.3730     6.8690 ha         1 ADB       0.143000
     28 H5          -1.7920    -1.6830     5.6730 ha         1 ADB       0.154000
     29 HN5         -0.8080     1.8410    -2.0670 hn         1 ADB       0.464800
     30 HN41         1.3790    -3.2390     0.8440 hn         1 ADB       0.456800
     31 HN42         1.3770    -3.2350    -0.8870 hn         1 ADB       0.456800
     32 H12          0.5670    -1.3660    -3.4040 ha         1 ADB       0.155000
     33 H13          0.7160    -1.7470    -5.8090 ha         1 ADB       0.144000
     34 H15         -0.9570     2.1340    -6.5520 ha         1 ADB       0.144000
     35 H16         -1.1070     2.5210    -4.1460 ha         1 ADB       0.155000
@<TRIPOS>BOND
     1     1     2 1   
     2     1     3 ar  
     3     1     8 ar  
     4     2    10 1   
     5     3     4 1   
     6     3     5 ar  
     7     5     6 ar  
     8     5    26 1   
     9     6     7 ar  
    10     6    27 1   
    11     7     8 ar  
    12     7    28 1   
    13     8     9 1   
    14    10    11 ar  
    15    10    17 ar  
    16    11    12 ar  
    17    12    13 1   
    18    12    14 ar  
    19    13    18 1   
    20    13    29 1   
    21    14    15 ar  
    22    15    16 1   
    23    15    17 ar  
    24    16    30 1   
    25    16    31 1   
    26    18    19 ar  
    27    18    23 ar  
    28    19    20 ar  
    29    19    32 1   
    30    20    21 ar  
    31    20    33 1   
    32    21    22 ar  
    33    21    24 1   
    34    22    23 ar  
    35    22    34 1   
    36    23    35 1   
    37    24    25 3   
@<TRIPOS>SUBSTRUCTURE
     1 ADB         1 TEMP              0 ****  ****    0 ROOT
