@<TRIPOS>MOLECULE
ADC
   28    30     1     0     0
SMALL
bcc


@<TRIPOS>ATOM
      1 C5           0.5160    -1.6260    -2.1480 c2         1 ADC      -0.183200
      2 C4           0.5040    -1.2970    -3.4350 c2         1 ADC      -0.184200
      3 C3          -0.2630    -0.0240    -3.6690 c5         1 ADC       0.131300
      4 O3           0.3280     0.8740    -4.5770 oh         1 ADC      -0.589800
      5 C2          -0.2960     0.5970    -2.2650 c5         1 ADC       0.132100
      6 O2          -1.4010     1.3980    -1.9690 oh         1 ADC      -0.573800
      7 C1          -0.2370    -0.6170    -1.3290 c5         1 ADC       0.088200
      8 N9           0.3660    -0.3390    -0.0430 na         1 ADC      -0.242000
      9 C8           1.6930    -0.1410     0.2170 cc         1 ADC       0.400700
     10 N7           1.9460     0.1030     1.4700 nd         1 ADC      -0.552100
     11 C7           0.7170     0.0700     2.0750 ca         1 ADC      -0.234200
     12 C6           0.3010     0.2420     3.4080 ca         1 ADC       0.780200
     13 N6           1.1520     0.5030     4.4010 nv         1 ADC      -0.956500
     14 N1          -1.0060     0.1380     3.6750 nb         1 ADC      -0.830000
     15 C10         -1.8510    -0.1260     2.6810 ca         1 ADC       0.707900
     16 N3          -1.5830    -0.3110     1.4010 nb         1 ADC      -0.740000
     17 C9          -0.2800    -0.2010     1.1490 ca         1 ADC       0.462800
     18 H5           0.9420    -2.5220    -1.7160 ha         1 ADC       0.156000
     19 H4           0.9300    -1.8870    -4.2370 ha         1 ADC       0.148000
     20 H3          -1.2890    -0.2700    -3.9770 h1         1 ADC       0.058700
     21 HO3          0.1030     0.5990    -5.4710 ho         1 ADC       0.412000
     22 H2           0.6460     1.1560    -2.1490 h1         1 ADC       0.055700
     23 HO2         -1.3330     2.2130    -2.4760 ho         1 ADC       0.418000
     24 H1          -1.2530    -0.9690    -1.1210 h1         1 ADC       0.118700
     25 H8           2.4330    -0.1960    -0.5670 h5         1 ADC       0.067800
     26 HN61         0.8200     0.5830     5.3470 hn         1 ADC       0.451300
     27 HN62         2.1420     0.5480     4.2370 hn         1 ADC       0.451300
     28 H6          -2.8960    -0.1990     2.9660 h5         1 ADC       0.046100
@<TRIPOS>BOND
     1     1     2 2   
     2     1     7 1   
     3     1    18 1   
     4     2     3 1   
     5     2    19 1   
     6     3     4 1   
     7     3     5 1   
     8     3    20 1   
     9     4    21 1   
    10     5     6 1   
    11     5     7 1   
    12     5    22 1   
    13     6    23 1   
    14     7     8 1   
    15     7    24 1   
    16     8     9 1   
    17     8    17 1   
    18     9    10 2   
    19     9    25 1   
    20    10    11 1   
    21    11    12 ar  
    22    11    17 ar  
    23    12    13 1   
    24    12    14 ar  
    25    13    26 1   
    26    13    27 1   
    27    14    15 ar  
    28    15    16 ar  
    29    15    28 1   
    30    16    17 ar  
@<TRIPOS>SUBSTRUCTURE
     1 ADC         1 TEMP              0 ****  ****    0 ROOT
