@<TRIPOS>MOLECULE
ADC
   28    30     1     0     0
SMALL
No Charge or Current Charge


@<TRIPOS>ATOM
      1 C5           0.3650    -1.5910    -2.0910 c2         1 ADC      -0.233200
      2 C4           0.4360    -1.3220    -3.3970 c2         1 ADC      -0.234200
      3 C3          -0.2640    -0.0270    -3.7200 c5         1 ADC       0.154500
      4 O3           0.4120     0.6950    -4.7470 oh         1 ADC      -0.652000
      5 C2          -0.2430     0.7180    -2.3370 c5         1 ADC       0.155300
      6 O2          -1.2930     1.6860    -2.2010 oh         1 ADC      -0.636000
      7 C1          -0.3300    -0.4810    -1.3220 c5         1 ADC       0.117500
      8 N9           0.2900    -0.2100    -0.0210 na         1 ADC      -0.271300
      9 C8           1.6380     0.1050     0.1890 cc         1 ADC       0.400700
     10 N7           1.8990     0.3150     1.4940 nd         1 ADC      -0.552100
     11 C7           0.6540     0.1210     2.1030 ca         1 ADC      -0.103600
     12 C6           0.2990     0.2050     3.4660 ca         1 ADC       0.451900
     13 N6           1.1970     0.5100     4.4400 nv         1 ADC      -1.066900
     14 N1          -0.9590    -0.0270     3.8720 nb         1 ADC      -0.304000
     15 C10         -1.8510    -0.3350     2.8990 ca         1 ADC       0.181900
     16 N3          -1.6010    -0.4340     1.5710 nb         1 ADC      -0.214000
     17 C9          -0.3270    -0.1990     1.1980 ca         1 ADC       0.134500
     18 H5           0.7800    -2.4910    -1.6320 ha         1 ADC       0.206000
     19 H4           0.9030    -1.9810    -4.1320 ha         1 ADC       0.198000
     20 H3          -1.3020    -0.2310    -4.0230 h1         1 ADC       0.058700
     21 HO3          0.3830     0.1350    -5.5540 ho         1 ADC       0.451000
     22 H2           0.7310     1.2160    -2.2240 h1         1 ADC       0.055700
     23 HO2         -1.1990     2.3000    -2.9630 ho         1 ADC       0.457000
     24 H1          -1.3850    -0.7490    -1.1720 h1         1 ADC       0.118700
     25 H8           2.3530     0.1620    -0.6240 h5         1 ADC       0.067800
     26 HN61         0.9600     0.2650     5.3980 hn         1 ADC       0.506500
     27 HN62         2.1810     0.4700     4.1890 hn         1 ADC       0.506500
     28 H6          -2.8750    -0.5240     3.2170 h5         1 ADC       0.046100
@<TRIPOS>BOND
     1     1     2 2   
     2     1     7 1   
     3     1    18 1   
     4     2     3 1   
     5     2    19 1   
     6     3     4 1   
     7     3     5 1   
     8     3    20 1   
     9     4    21 1   
    10     5     6 1   
    11     5     7 1   
    12     5    22 1   
    13     6    23 1   
    14     7     8 1   
    15     7    24 1   
    16     8     9 1   
    17     8    17 1   
    18     9    10 2   
    19     9    25 1   
    20    10    11 1   
    21    11    12 ar  
    22    11    17 ar  
    23    12    13 1   
    24    12    14 ar  
    25    13    26 1   
    26    13    27 1   
    27    14    15 ar  
    28    15    16 ar  
    29    15    28 1   
    30    16    17 ar  
@<TRIPOS>SUBSTRUCTURE
     1 ADC         1 TEMP              0 ****  ****    0 ROOT
