@<TRIPOS>MOLECULE
ADD
   56    56     1     0     0
SMALL
No Charge or Current Charge


@<TRIPOS>ATOM
      1 C1           0.7080     0.7060     7.2460 c          1 ADD       0.737000
      2 O1           0.9260     1.9110     7.2720 o          1 ADD      -0.738500
      3 O2           1.1400    -0.0660     8.0920 o          1 ADD      -0.738500
      4 C2          -0.2370     0.1440     6.1580 c3         1 ADD      -0.187700
      5 CM2         -1.6570     0.7420     6.3520 c3         1 ADD      -0.060100
      6 C3           0.3550     0.3720     4.7360 c3         1 ADD       0.175500
      7 N3           1.6470    -0.3250     4.6260 n8         1 ADD      -0.956200
      8 C4          -0.5730    -0.0900     3.5750 c3         1 ADD      -0.121400
      9 C5          -0.0230     0.1890     2.1470 c3         1 ADD      -0.076400
     10 C6          -0.9290    -0.3020     0.9780 c3         1 ADD      -0.058700
     11 CM6         -2.2990     0.4270     0.9470 c3         1 ADD      -0.085100
     12 C7          -0.1620    -0.1780    -0.3760 c3         1 ADD      -0.072400
     13 C8          -0.8750    -0.7110    -1.6590 c3         1 ADD      -0.062700
     14 CM8         -1.2680    -2.2100    -1.5420 c3         1 ADD      -0.079100
     15 C9          -0.0300    -0.3980    -2.9360 c3         1 ADD       0.175300
     16 O9           1.1850    -1.1820    -2.8580 os         1 ADD      -0.458000
     17 CM9          2.2340    -0.8440    -3.7860 c3         1 ADD       0.148900
     18 C           -0.7830    -0.7010    -4.2700 c3         1 ADD      -0.049100
     19 C10         -0.3000     0.1010    -5.4790 ca         1 ADD      -0.072300
     20 C11          0.1120    -0.5610    -6.6530 ca         1 ADD      -0.104000
     21 C12          0.5510     0.1730    -7.7680 ca         1 ADD      -0.114500
     22 C13          0.5710     1.5770    -7.7220 ca         1 ADD      -0.117000
     23 C14          0.1480     2.2450    -6.5620 ca         1 ADD      -0.114500
     24 C15         -0.2890     1.5110    -5.4460 ca         1 ADD      -0.104000
     25 H2          -0.3270    -0.9390     6.3160 hc         1 ADD       0.025700
     26 HM21        -1.6810     1.8000     6.0640 hc         1 ADD       0.011700
     27 HM22        -2.4020     0.2010     5.7570 hc         1 ADD       0.011700
     28 HM23        -1.9620     0.6660     7.4020 hc         1 ADD       0.011700
     29 H3           0.5360     1.4510     4.6080 h1         1 ADD       0.069700
     30 HN31         1.4830    -1.3290     4.7380 hn         1 ADD       0.367000
     31 HN32         1.9790    -0.2380     3.6610 hn         1 ADD       0.367000
     32 H41         -1.5280     0.4350     3.6720 hc         1 ADD       0.034200
     33 H42         -0.7880    -1.1610     3.6810 hc         1 ADD       0.034200
     34 H51          0.9540    -0.2980     2.0430 hc         1 ADD       0.033200
     35 H52          0.1550     1.2660     2.0360 hc         1 ADD       0.033200
     36 H6          -1.1240    -1.3660     1.1590 hc         1 ADD       0.045700
     37 HM61        -2.1660     1.5010     0.7730 hc         1 ADD       0.028700
     38 HM62        -2.9440     0.0270     0.1570 hc         1 ADD       0.028700
     39 HM63        -2.8450     0.2950     1.8870 hc         1 ADD       0.028700
     40 H71          0.7970    -0.7020    -0.2760 hc         1 ADD       0.039700
     41 H72          0.0870     0.8790    -0.5320 hc         1 ADD       0.039700
     42 H8          -1.8060    -0.1440    -1.7740 hc         1 ADD       0.044700
     43 HM81        -0.3850    -2.8350    -1.3570 hc         1 ADD       0.033700
     44 HM82        -1.9770    -2.3690    -0.7220 hc         1 ADD       0.033700
     45 HM83        -1.7540    -2.5680    -2.4560 hc         1 ADD       0.033700
     46 H9           0.2110     0.6730    -2.9060 h1         1 ADD       0.035700
     47 HM91         3.1630    -1.3560    -3.5060 h1         1 ADD       0.027700
     48 HM92         1.9790    -1.1580    -4.8040 h1         1 ADD       0.027700
     49 HM93         2.4260     0.2360    -3.7850 h1         1 ADD       0.027700
     50 H'1         -0.7280    -1.7770    -4.4740 hc         1 ADD       0.054200
     51 H'2         -1.8480    -0.4820    -4.1280 hc         1 ADD       0.054200
     52 H1           0.0990    -1.6480    -6.7010 ha         1 ADD       0.114000
     53 H10          0.8730    -0.3460    -8.6680 ha         1 ADD       0.108000
     54 H4           0.9100     2.1450    -8.5860 ha         1 ADD       0.107000
     55 H5           0.1570     3.3330    -6.5270 ha         1 ADD       0.108000
     56 H11         -0.6240     2.0420    -4.5580 ha         1 ADD       0.114000
@<TRIPOS>BOND
     1     1     2 1   
     2     1     3 1   
     3     1     4 1   
     4     4     5 1   
     5     4     6 1   
     6     4    25 1   
     7     5    26 1   
     8     5    27 1   
     9     5    28 1   
    10     6     7 1   
    11     6     8 1   
    12     6    29 1   
    13     7    30 1   
    14     7    31 1   
    15     8     9 1   
    16     8    32 1   
    17     8    33 1   
    18     9    10 1   
    19     9    34 1   
    20     9    35 1   
    21    10    11 1   
    22    10    12 1   
    23    10    36 1   
    24    11    37 1   
    25    11    38 1   
    26    11    39 1   
    27    12    13 1   
    28    12    40 1   
    29    12    41 1   
    30    13    14 1   
    31    13    15 1   
    32    13    42 1   
    33    14    43 1   
    34    14    44 1   
    35    14    45 1   
    36    15    16 1   
    37    15    18 1   
    38    15    46 1   
    39    16    17 1   
    40    17    47 1   
    41    17    48 1   
    42    17    49 1   
    43    18    19 1   
    44    18    50 1   
    45    18    51 1   
    46    19    20 ar  
    47    19    24 ar  
    48    20    21 ar  
    49    20    52 1   
    50    21    22 ar  
    51    21    53 1   
    52    22    23 ar  
    53    22    54 1   
    54    23    24 ar  
    55    23    55 1   
    56    24    56 1   
@<TRIPOS>SUBSTRUCTURE
     1 ADD         1 TEMP              0 ****  ****    0 ROOT
