@<TRIPOS>MOLECULE
ADD
   56    56     1     0     0
SMALL
bcc


@<TRIPOS>ATOM
      1 C1           0.9010     0.5750     7.0010 c          1 ADD       0.947600
      2 O1           0.9050     1.8230     7.0610 o          1 ADD      -0.843800
      3 O2           1.5510    -0.1960     7.7370 o          1 ADD      -0.843800
      4 C2          -0.0270    -0.0530     5.9440 c3         1 ADD      -0.187700
      5 CM2         -1.4760     0.3200     6.2530 c3         1 ADD      -0.060100
      6 C3           0.4080     0.3790     4.5390 c3         1 ADD       0.175500
      7 N3           1.8310     0.0840     4.3880 n8         1 ADD      -0.845800
      8 C4          -0.4680    -0.2370     3.4400 c3         1 ADD      -0.121400
      9 C5          -0.0540     0.1640     2.0280 c3         1 ADD      -0.076400
     10 C6          -0.9970    -0.3240     0.9230 c3         1 ADD      -0.058700
     11 CM6         -2.3320     0.4160     0.9610 c3         1 ADD      -0.085100
     12 C7          -0.3030    -0.1660    -0.4330 c3         1 ADD      -0.072400
     13 C8          -1.1180    -0.5620    -1.6680 c3         1 ADD      -0.062700
     14 CM8         -1.5330    -2.0300    -1.6200 c3         1 ADD      -0.079100
     15 C9          -0.3440    -0.2010    -2.9410 c3         1 ADD       0.152100
     16 O9           0.8100    -1.0090    -3.0590 os         1 ADD      -0.411600
     17 CM9          2.0230    -0.3060    -3.1570 c3         1 ADD       0.125700
     18 C           -1.1940    -0.3210    -4.2110 c3         1 ADD      -0.049100
     19 C10         -0.4400     0.1220    -5.4320 ca         1 ADD      -0.072300
     20 C11          0.2700    -0.7920    -6.2070 ca         1 ADD      -0.122000
     21 C12          1.0090    -0.3720    -7.3060 ca         1 ADD      -0.132500
     22 C13          1.0490     0.9730    -7.6470 ca         1 ADD      -0.135000
     23 C14          0.3410     1.8940    -6.8850 ca         1 ADD      -0.132500
     24 C15         -0.3960     1.4680    -5.7880 ca         1 ADD      -0.122000
     25 H2           0.0670    -1.1460     6.0000 hc         1 ADD       0.025700
     26 HM21        -1.6400     1.3890     6.1100 hc         1 ADD       0.011700
     27 HM22        -2.1870    -0.2160     5.6240 hc         1 ADD       0.011700
     28 HM23        -1.7270     0.0830     7.2880 hc         1 ADD       0.011700
     29 H3           0.3020     1.4690     4.4820 h1         1 ADD       0.069700
     30 HN31         1.9630    -0.9220     4.3950 hn         1 ADD       0.311800
     31 HN32         2.1530     0.3960     3.4800 hn         1 ADD       0.311800
     32 H41         -1.5070     0.0550     3.6060 hc         1 ADD       0.034200
     33 H42         -0.4400    -1.3310     3.5300 hc         1 ADD       0.034200
     34 H51          0.9480    -0.2260     1.8220 hc         1 ADD       0.033200
     35 H52          0.0280     1.2570     1.9650 hc         1 ADD       0.033200
     36 H6          -1.1880    -1.3900     1.1000 hc         1 ADD       0.045700
     37 HM61        -2.2010     1.4620     0.6720 hc         1 ADD       0.028700
     38 HM62        -3.0650    -0.0240     0.2840 hc         1 ADD       0.028700
     39 HM63        -2.7760     0.4050     1.9570 hc         1 ADD       0.028700
     40 H71          0.6200    -0.7550    -0.4180 hc         1 ADD       0.039700
     41 H72          0.0010     0.8830    -0.5390 hc         1 ADD       0.039700
     42 H8          -2.0230     0.0540    -1.6930 hc         1 ADD       0.044700
     43 HM81        -0.6650    -2.6820    -1.5140 hc         1 ADD       0.033700
     44 HM82        -2.1960    -2.2220    -0.7760 hc         1 ADD       0.033700
     45 HM83        -2.0720    -2.3370    -2.5170 hc         1 ADD       0.033700
     46 H9          -0.0540     0.8560    -2.8460 h1         1 ADD       0.035700
     47 HM91         2.8300    -1.0380    -3.1960 h1         1 ADD       0.027700
     48 HM92         2.0800     0.3100    -4.0610 h1         1 ADD       0.027700
     49 HM93         2.1950     0.3440    -2.2910 h1         1 ADD       0.027700
     50 H'1         -1.5320    -1.3520    -4.3400 hc         1 ADD       0.054200
     51 H'2         -2.0880     0.2940    -4.0820 hc         1 ADD       0.054200
     52 H1           0.2430    -1.8440    -5.9500 ha         1 ADD       0.132000
     53 H10          1.5550    -1.0970    -7.8960 ha         1 ADD       0.126000
     54 H4           1.6220     1.3020    -8.5050 ha         1 ADD       0.125000
     55 H5           0.3600     2.9440    -7.1470 ha         1 ADD       0.126000
     56 H11         -0.9490     2.1940    -5.2010 ha         1 ADD       0.132000
@<TRIPOS>BOND
     1     1     2 1   
     2     1     3 1   
     3     1     4 1   
     4     4     5 1   
     5     4     6 1   
     6     4    25 1   
     7     5    26 1   
     8     5    27 1   
     9     5    28 1   
    10     6     7 1   
    11     6     8 1   
    12     6    29 1   
    13     7    30 1   
    14     7    31 1   
    15     8     9 1   
    16     8    32 1   
    17     8    33 1   
    18     9    10 1   
    19     9    34 1   
    20     9    35 1   
    21    10    11 1   
    22    10    12 1   
    23    10    36 1   
    24    11    37 1   
    25    11    38 1   
    26    11    39 1   
    27    12    13 1   
    28    12    40 1   
    29    12    41 1   
    30    13    14 1   
    31    13    15 1   
    32    13    42 1   
    33    14    43 1   
    34    14    44 1   
    35    14    45 1   
    36    15    16 1   
    37    15    18 1   
    38    15    46 1   
    39    16    17 1   
    40    17    47 1   
    41    17    48 1   
    42    17    49 1   
    43    18    19 1   
    44    18    50 1   
    45    18    51 1   
    46    19    20 ar  
    47    19    24 ar  
    48    20    21 ar  
    49    20    52 1   
    50    21    22 ar  
    51    21    53 1   
    52    22    23 ar  
    53    22    54 1   
    54    23    24 ar  
    55    23    55 1   
    56    24    56 1   
@<TRIPOS>SUBSTRUCTURE
     1 ADD         1 TEMP              0 ****  ****    0 ROOT
