@<TRIPOS>MOLECULE
ADE
   15    16     1     0     0
SMALL
No Charge or Current Charge


@<TRIPOS>ATOM
      1 N9          -0.6430    -0.0650    -2.0610 na         1 ADE      -0.413300
      2 C8           0.7130    -0.0210    -2.3800 cc         1 ADE       0.398700
      3 N7           1.4620     0.0440    -1.2630 nd         1 ADE      -0.551100
      4 C5           0.5130     0.0410    -0.2320 ca         1 ADE      -0.104600
      5 C6           0.6970     0.0910     1.1660 ca         1 ADE       0.452900
      6 N6           1.9270     0.1550     1.7430 nv         1 ADE      -1.064900
      7 N1          -0.3500     0.0670     2.0060 nb         1 ADE      -0.303000
      8 C2          -1.5760    -0.0010     1.4280 ca         1 ADE       0.184900
      9 N3          -1.8450    -0.0500     0.1000 nb         1 ADE      -0.221000
     10 C4          -0.7700    -0.0280    -0.7080 ca         1 ADE       0.125500
     11 HN9         -1.3990    -0.1170    -2.7300 hn         1 ADE       0.369000
     12 H8           1.0750    -0.0400    -3.4010 h5         1 ADE       0.065800
     13 HN61         2.0080    -0.1100     2.7200 hn         1 ADE       0.507000
     14 HN62         2.7260    -0.0490     1.1470 hn         1 ADE       0.507000
     15 H2          -2.4320    -0.0200     2.1000 h5         1 ADE       0.046100
@<TRIPOS>BOND
     1     1     2 1   
     2     1    10 1   
     3     1    11 1   
     4     2     3 2   
     5     2    12 1   
     6     3     4 1   
     7     4     5 ar  
     8     4    10 ar  
     9     5     6 1   
    10     5     7 ar  
    11     6    13 1   
    12     6    14 1   
    13     7     8 ar  
    14     8     9 ar  
    15     8    15 1   
    16     9    10 ar  
@<TRIPOS>SUBSTRUCTURE
     1 ADE         1 TEMP              0 ****  ****    0 ROOT
