@<TRIPOS>MOLECULE
ADF
   61    63     1     0     0
SMALL
abcg2


@<TRIPOS>ATOM
      1 C1          -3.4210    -0.1540    -0.2900 c          1 ADF       0.620100
      2 C2          -2.6940    -0.3080     1.0390 c5         1 ADF       0.102500
      3 C4          -2.7570     0.9510     1.9060 c5         1 ADF      -0.074400
      4 C5          -1.5890     0.7460     2.8700 c5         1 ADF      -0.088400
      5 C6          -0.5990    -0.1580     2.1060 c5         1 ADF       0.179500
      6 C9           0.7180     0.5470     1.8560 c3         1 ADF       0.182600
      7 O3          -2.8030    -0.0900    -1.3430 o          1 ADF      -0.569100
      8 N7          -1.2700    -0.4650     0.8490 n7         1 ADF      -0.849400
      9 N8          -4.7660    -0.0750    -0.2380 n          1 ADF      -0.411800
     10 C10          2.7500     0.0790     0.6760 ca         1 ADF       0.121100
     11 O11          1.5230    -0.3100     1.0740 os         1 ADF      -0.364100
     12 C12         -5.5720     0.0570    -1.4500 c5         1 ADF       0.104700
     13 C13         -6.8810    -0.6940    -1.1250 c5         1 ADF      -0.092400
     14 C14         -6.6600    -1.3210     0.2520 c5         1 ADF      -0.101400
     15 C15         -5.6280    -0.4010     0.8880 c5         1 ADF       0.103000
     16 C16          3.4610    -0.7840    -0.1870 ca         1 ADF      -0.129300
     17 C17          4.7280    -0.3670    -0.5770 ca         1 ADF      -0.057000
     18 C18          5.3120     0.8330    -0.1690 ca         1 ADF      -0.163600
     19 C19          4.5810     1.6530     0.6740 ca         1 ADF      -0.054000
     20 C20          3.3120     1.2830     1.0940 ca         1 ADF      -0.232000
     21 C21         -5.8630     1.5110    -1.8050 c3         1 ADF       0.147800
     22 N22         -4.6650     2.3000    -2.0130 n8         1 ADF      -0.984200
     23 C23          6.7020     1.2260    -0.6390 c          1 ADF       0.715600
     24 C24          2.8690    -2.1060    -0.6880 c3         1 ADF       0.023300
     25 C25          3.8530    -2.8640    -1.5850 c3         1 ADF      -0.079100
     26 C26          1.6130    -1.8400    -1.5340 c3         1 ADF      -0.079100
     27 C27          2.5440    -3.0400     0.4890 c3         1 ADF      -0.079100
     28 O28          7.1450     2.3170    -0.2290 o          1 ADF      -0.726500
     29 O29          7.2900     0.4270    -1.3970 o          1 ADF      -0.726500
     30 H2          -3.1350    -1.1480     1.6000 h1         1 ADF       0.016700
     31 H41         -3.7100     1.0710     2.4200 hc         1 ADF       0.057200
     32 H42         -2.6030     1.8330     1.2800 hc         1 ADF       0.057200
     33 H51         -1.9280     0.2430     3.7760 hc         1 ADF       0.043700
     34 H52         -1.1400     1.6910     3.1800 hc         1 ADF       0.043700
     35 H6          -0.3980    -1.0620     2.6960 h1         1 ADF       0.030700
     36 H91          1.2030     0.7760     2.8130 h1         1 ADF       0.034200
     37 H92          0.5370     1.4950     1.3330 h1         1 ADF       0.034200
     38 HN7         -1.0260    -1.3790     0.4950 hn         1 ADF       0.441000
     39 H12         -5.0400    -0.4160    -2.2770 h1         1 ADF       0.075700
     40 H131        -7.1210    -1.4350    -1.8870 hc         1 ADF       0.046200
     41 H132        -7.7160     0.0100    -1.0870 hc         1 ADF       0.046200
     42 H141        -6.2420    -2.3260     0.1600 hc         1 ADF       0.049200
     43 H142        -7.5750    -1.3930     0.8390 hc         1 ADF       0.049200
     44 H151        -5.0880    -0.8740     1.7040 h1         1 ADF       0.048200
     45 H152        -6.1020     0.5020     1.2840 h1         1 ADF       0.048200
     46 H17          5.3100    -0.9940    -1.2360 ha         1 ADF       0.131000
     47 H19          4.9970     2.5930     1.0120 ha         1 ADF       0.124000
     48 H20          2.7700     1.9460     1.7550 ha         1 ADF       0.089000
     49 H211        -6.5430     1.4900    -2.6710 h1         1 ADF       0.020700
     50 H212        -6.4340     1.9600    -0.9860 h1         1 ADF       0.020700
     51 H221        -4.1080     1.8890    -2.7510 hn         1 ADF       0.399500
     52 H222        -4.9300     3.2200    -2.3400 hn         1 ADF       0.399500
     53 H251         4.1160    -2.3050    -2.4850 hc         1 ADF       0.028033
     54 H252         4.7750    -3.1230    -1.0630 hc         1 ADF       0.028033
     55 H253         3.3890    -3.7980    -1.9070 hc         1 ADF       0.028033
     56 H261         1.2020    -2.7840    -1.8980 hc         1 ADF       0.028033
     57 H262         0.8300    -1.3250    -0.9840 hc         1 ADF       0.028033
     58 H263         1.8650    -1.2350    -2.4080 hc         1 ADF       0.028033
     59 H271         3.4460    -3.2580     1.0650 hc         1 ADF       0.028033
     60 H272         1.8020    -2.6260     1.1670 hc         1 ADF       0.028033
     61 H273         2.1580    -3.9910     0.1160 hc         1 ADF       0.028033
@<TRIPOS>BOND
     1     1     2 1   
     2     1     7 2   
     3     1     9 1   
     4     2     3 1   
     5     2     8 1   
     6     2    30 1   
     7     3     4 1   
     8     3    31 1   
     9     3    32 1   
    10     4     5 1   
    11     4    33 1   
    12     4    34 1   
    13     5     6 1   
    14     5     8 1   
    15     5    35 1   
    16     6    11 1   
    17     6    36 1   
    18     6    37 1   
    19     8    38 1   
    20     9    12 1   
    21     9    15 1   
    22    10    11 1   
    23    10    16 ar  
    24    10    20 ar  
    25    12    13 1   
    26    12    21 1   
    27    12    39 1   
    28    13    14 1   
    29    13    40 1   
    30    13    41 1   
    31    14    15 1   
    32    14    42 1   
    33    14    43 1   
    34    15    44 1   
    35    15    45 1   
    36    16    17 ar  
    37    16    24 1   
    38    17    18 ar  
    39    17    46 1   
    40    18    19 ar  
    41    18    23 1   
    42    19    20 ar  
    43    19    47 1   
    44    20    48 1   
    45    21    22 1   
    46    21    49 1   
    47    21    50 1   
    48    22    51 1   
    49    22    52 1   
    50    23    28 1   
    51    23    29 1   
    52    24    25 1   
    53    24    26 1   
    54    24    27 1   
    55    25    53 1   
    56    25    54 1   
    57    25    55 1   
    58    26    56 1   
    59    26    57 1   
    60    26    58 1   
    61    27    59 1   
    62    27    60 1   
    63    27    61 1   
@<TRIPOS>SUBSTRUCTURE
     1 ADF         1 TEMP              0 ****  ****    0 ROOT
