@<TRIPOS>MOLECULE
ADF
   61    63     1     0     0
SMALL
No Charge or Current Charge


@<TRIPOS>ATOM
      1 C1          -3.7410     0.0330    -0.7720 c          1 ADF       0.620100
      2 C2          -2.6650    -0.0850     0.3970 c5         1 ADF       0.102500
      3 C4          -3.0180     0.8620     1.5980 c5         1 ADF      -0.074400
      4 C5          -1.6470     1.4870     2.0090 c5         1 ADF      -0.088400
      5 C6          -0.6270     0.5110     1.3740 c5         1 ADF       0.179500
      6 C9           0.8290     1.0520     1.3060 c3         1 ADF       0.182600
      7 O3          -3.4980     0.3120    -1.9450 o          1 ADF      -0.569100
      8 N7          -1.2560     0.2900     0.0540 n7         1 ADF      -0.849400
      9 N8          -5.0660    -0.1540    -0.2980 n          1 ADF      -0.411800
     10 C10          3.0280     0.1780     0.5440 ca         1 ADF       0.121100
     11 O11          1.6650     0.0320     0.7220 os         1 ADF      -0.364100
     12 C12         -6.2360     0.2160    -1.1490 c5         1 ADF       0.104700
     13 C13         -7.3680    -0.6720    -0.5500 c5         1 ADF      -0.092400
     14 C14         -6.5890    -1.9270    -0.1080 c5         1 ADF      -0.101400
     15 C15         -5.3960    -1.2700     0.6220 c5         1 ADF       0.103000
     16 C16          3.7910    -0.8940    -0.0090 ca         1 ADF      -0.129300
     17 C17          5.1910    -0.6870    -0.1680 ca         1 ADF      -0.057000
     18 C18          5.8240     0.5220     0.1990 ca         1 ADF      -0.163600
     19 C19          5.0400     1.5570     0.7410 ca         1 ADF      -0.054000
     20 C20          3.6620     1.3860     0.9100 ca         1 ADF      -0.232000
     21 C21         -6.6360     1.7250    -1.0870 c3         1 ADF       0.147800
     22 N22         -5.5890     2.6540    -1.5680 n8         1 ADF      -0.984200
     23 C23          7.3230     0.7070     0.0140 c          1 ADF       0.715600
     24 C24          3.1280    -2.2540    -0.4290 c3         1 ADF       0.023300
     25 C25          4.1510    -3.2820    -0.9980 c3         1 ADF      -0.079100
     26 C26          2.0740    -2.0170    -1.5490 c3         1 ADF      -0.079100
     27 C27          2.4580    -2.9350     0.8000 c3         1 ADF      -0.079100
     28 O28          7.8280     1.7690     0.3470 o          1 ADF      -0.726500
     29 O29          7.9740    -0.2130    -0.4610 o          1 ADF      -0.726500
     30 H2          -2.6600    -1.1250     0.7480 h1         1 ADF       0.016700
     31 H41         -3.4710     0.2970     2.4210 hc         1 ADF       0.057200
     32 H42         -3.7310     1.6470     1.3190 hc         1 ADF       0.057200
     33 H51         -1.5300     1.5630     3.0960 hc         1 ADF       0.043700
     34 H52         -1.5380     2.4970     1.5980 hc         1 ADF       0.043700
     35 H6          -0.6070    -0.4300     1.9430 h1         1 ADF       0.030700
     36 H91          1.1660     1.2890     2.3240 h1         1 ADF       0.034200
     37 H92          0.8510     1.9700     0.7050 h1         1 ADF       0.034200
     38 HN7         -0.7800    -0.4750    -0.4410 hn         1 ADF       0.441000
     39 H12         -6.0530    -0.0620    -2.1960 h1         1 ADF       0.075700
     40 H131        -8.1520    -0.8960    -1.2820 hc         1 ADF       0.046200
     41 H132        -7.8520    -0.1920     0.3090 hc         1 ADF       0.046200
     42 H141        -6.2570    -2.5210    -0.9680 hc         1 ADF       0.049200
     43 H142        -7.1730    -2.5830     0.5470 hc         1 ADF       0.049200
     44 H151        -4.5780    -1.9890     0.7520 h1         1 ADF       0.048200
     45 H152        -5.6850    -0.8870     1.6100 h1         1 ADF       0.048200
     46 H17          5.8220    -1.4650    -0.5830 ha         1 ADF       0.131000
     47 H19          5.4970     2.5010     1.0340 ha         1 ADF       0.124000
     48 H20          3.1020     2.2150     1.3310 ha         1 ADF       0.089000
     49 H211        -7.5300     1.8710    -1.7090 h1         1 ADF       0.020700
     50 H212        -6.8900     2.0000    -0.0540 h1         1 ADF       0.020700
     51 H221        -5.2940     2.3720    -2.5100 hn         1 ADF       0.399500
     52 H222        -6.0000     3.5850    -1.7050 hn         1 ADF       0.399500
     53 H251         4.6440    -2.8970    -1.8990 hc         1 ADF       0.028033
     54 H252         4.9180    -3.5340    -0.2550 hc         1 ADF       0.028033
     55 H253         3.6530    -4.2190    -1.2790 hc         1 ADF       0.028033
     56 H261         1.6740    -2.9700    -1.9180 hc         1 ADF       0.028033
     57 H262         1.2190    -1.4280    -1.2040 hc         1 ADF       0.028033
     58 H263         2.5260    -1.4910    -2.3980 hc         1 ADF       0.028033
     59 H271         3.1790    -3.0450     1.6190 hc         1 ADF       0.028033
     60 H272         1.6010    -2.3720     1.1790 hc         1 ADF       0.028033
     61 H273         2.0900    -3.9350     0.5400 hc         1 ADF       0.028033
@<TRIPOS>BOND
     1     1     2 1   
     2     1     7 2   
     3     1     9 1   
     4     2     3 1   
     5     2     8 1   
     6     2    30 1   
     7     3     4 1   
     8     3    31 1   
     9     3    32 1   
    10     4     5 1   
    11     4    33 1   
    12     4    34 1   
    13     5     6 1   
    14     5     8 1   
    15     5    35 1   
    16     6    11 1   
    17     6    36 1   
    18     6    37 1   
    19     8    38 1   
    20     9    12 1   
    21     9    15 1   
    22    10    11 1   
    23    10    16 ar  
    24    10    20 ar  
    25    12    13 1   
    26    12    21 1   
    27    12    39 1   
    28    13    14 1   
    29    13    40 1   
    30    13    41 1   
    31    14    15 1   
    32    14    42 1   
    33    14    43 1   
    34    15    44 1   
    35    15    45 1   
    36    16    17 ar  
    37    16    24 1   
    38    17    18 ar  
    39    17    46 1   
    40    18    19 ar  
    41    18    23 1   
    42    19    20 ar  
    43    19    47 1   
    44    20    48 1   
    45    21    22 1   
    46    21    49 1   
    47    21    50 1   
    48    22    51 1   
    49    22    52 1   
    50    23    28 1   
    51    23    29 1   
    52    24    25 1   
    53    24    26 1   
    54    24    27 1   
    55    25    53 1   
    56    25    54 1   
    57    25    55 1   
    58    26    56 1   
    59    26    57 1   
    60    26    58 1   
    61    27    59 1   
    62    27    60 1   
    63    27    61 1   
@<TRIPOS>SUBSTRUCTURE
     1 ADF         1 TEMP              0 ****  ****    0 ROOT
