@<TRIPOS>MOLECULE
ADH
   24    24     1     0     0
SMALL
bcc


@<TRIPOS>ATOM
      1 C1          -1.3840     0.2730    -0.4310 c6         1 ADH       0.159700
      2 C2          -0.2260     0.5700    -1.3910 c6         1 ADH       0.160100
      3 C3           0.9350    -0.3600    -1.0950 c6         1 ADH       0.158100
      4 C4           1.4600    -0.0520     0.3040 c6         1 ADH      -0.083200
      5 C5           0.3710     0.0590     1.3320 c2         1 ADH      -0.110400
      6 C6           0.8540    -0.0030     2.7490 c3         1 ADH       0.179600
      7 C7          -0.9050     0.2180     0.9920 c2         1 ADH      -0.145200
      8 N1          -2.0160    -0.9990    -0.7780 n8         1 ADH      -0.875800
      9 O2          -0.6130     0.4180    -2.7370 oh         1 ADH      -0.571800
     10 O3           1.9360    -0.1710    -2.0710 oh         1 ADH      -0.581800
     11 O6          -0.1920     0.1970     3.6610 oh         1 ADH      -0.595800
     12 H1          -2.0920     1.1140    -0.5090 h1         1 ADH       0.019700
     13 H2           0.1060     1.6030    -1.1990 h1         1 ADH       0.037700
     14 H3           0.5620    -1.3930    -1.1120 h1         1 ADH       0.068700
     15 H41          2.0250     0.8870     0.2760 hc         1 ADH       0.051700
     16 H42          2.1790    -0.8230     0.6060 hc         1 ADH       0.051700
     17 H61          1.3420    -0.9780     2.8970 h1         1 ADH       0.024200
     18 H62          1.6500     0.7480     2.8720 h1         1 ADH       0.024200
     19 H71         -1.6680     0.2940     1.7580 ha         1 ADH       0.142000
     20 HN12        -2.7370    -1.2060    -0.0980 hn         1 ADH       0.342800
     21 HN22        -2.4940    -0.9070    -1.6660 hn         1 ADH       0.342800
     22 HO2         -1.2730     1.0890    -2.9340 ho         1 ADH       0.394000
     23 HO3          2.6620    -0.7690    -1.8680 ho         1 ADH       0.399000
     24 HO6          0.1720     0.1390     4.5480 ho         1 ADH       0.408000
@<TRIPOS>BOND
     1     1     2 1   
     2     1     7 1   
     3     1     8 1   
     4     1    12 1   
     5     2     3 1   
     6     2     9 1   
     7     2    13 1   
     8     3     4 1   
     9     3    10 1   
    10     3    14 1   
    11     4     5 1   
    12     4    15 1   
    13     4    16 1   
    14     5     6 1   
    15     5     7 2   
    16     6    11 1   
    17     6    17 1   
    18     6    18 1   
    19     7    19 1   
    20     8    20 1   
    21     8    21 1   
    22     9    22 1   
    23    10    23 1   
    24    11    24 1   
@<TRIPOS>SUBSTRUCTURE
     1 ADH         1 TEMP              0 ****  ****    0 ROOT
