@<TRIPOS>MOLECULE
ADH
   24    24     1     0     0
SMALL
No Charge or Current Charge


@<TRIPOS>ATOM
      1 C1          -1.4530     0.0880    -0.4270 c6         1 ADH       0.159700
      2 C2          -0.3150     0.6180    -1.3720 c6         1 ADH       0.183300
      3 C3           1.0010    -0.1880    -1.1120 c6         1 ADH       0.181300
      4 C4           1.4520    -0.0370     0.3670 c6         1 ADH      -0.083200
      5 C5           0.3070    -0.1000     1.3810 c2         1 ADH      -0.110400
      6 C6           0.7380    -0.1960     2.8350 c3         1 ADH       0.202800
      7 C7          -0.9860    -0.0360     1.0090 c2         1 ADH      -0.195200
      8 N1          -2.0060    -1.2130    -0.8670 n8         1 ADH      -0.986200
      9 O2          -0.7320     0.5420    -2.7570 oh         1 ADH      -0.634000
     10 O3           2.0750     0.2470    -1.9720 oh         1 ADH      -0.644000
     11 O6           0.7350     1.1060     3.4280 oh         1 ADH      -0.658000
     12 H1          -2.2840     0.8080    -0.4670 h1         1 ADH       0.019700
     13 H2          -0.1180     1.6670    -1.1050 h1         1 ADH       0.037700
     14 H3           0.7800    -1.2510    -1.2960 h1         1 ADH       0.068700
     15 H41          1.9760     0.9200     0.5000 hc         1 ADH       0.051700
     16 H42          2.1870    -0.8230     0.5920 hc         1 ADH       0.051700
     17 H61          0.0490    -0.8600     3.3760 h1         1 ADH       0.024200
     18 H62          1.7400    -0.6410     2.9030 h1         1 ADH       0.024200
     19 H71         -1.7760    -0.0600     1.7610 ha         1 ADH       0.192000
     20 HN12        -2.9180    -1.3550    -0.4190 hn         1 ADH       0.398000
     21 HN22        -2.2280    -1.1360    -1.8660 hn         1 ADH       0.398000
     22 HO2         -1.3890     1.2580    -2.8910 ho         1 ADH       0.433000
     23 HO3          2.8040    -0.4000    -1.8610 ho         1 ADH       0.438000
     24 HO6          1.0140     0.9910     4.3630 ho         1 ADH       0.447000
@<TRIPOS>BOND
     1     1     2 1   
     2     1     7 1   
     3     1     8 1   
     4     1    12 1   
     5     2     3 1   
     6     2     9 1   
     7     2    13 1   
     8     3     4 1   
     9     3    10 1   
    10     3    14 1   
    11     4     5 1   
    12     4    15 1   
    13     4    16 1   
    14     5     6 1   
    15     5     7 2   
    16     6    11 1   
    17     6    17 1   
    18     6    18 1   
    19     7    19 1   
    20     8    20 1   
    21     8    21 1   
    22     9    22 1   
    23    10    23 1   
    24    11    24 1   
@<TRIPOS>SUBSTRUCTURE
     1 ADH         1 TEMP              0 ****  ****    0 ROOT
