@<TRIPOS>MOLECULE
ADK
   18    19     1     0     0
SMALL
No Charge or Current Charge


@<TRIPOS>ATOM
      1 N9          -1.7140     0.0110     1.1650 nc         1 ADK      -0.431300
      2 C4          -0.5080    -0.0240     0.6630 cd         1 ADK      -0.095000
      3 N3           0.6980    -0.0100     1.3510 na         1 ADK      -0.147500
      4 C2           1.8910    -0.0410     0.5730 cc         1 ADK       0.590400
      5 N1           1.8200    -0.0830    -0.7820 nd         1 ADK      -0.813000
      6 C6           0.6550    -0.1040    -1.3750 cc         1 ADK       0.737900
      7 N6           0.7790    -0.1380    -2.6940 nv         1 ADK      -1.038900
      8 C5          -0.5470    -0.0710    -0.6980 cd         1 ADK      -0.110600
      9 N7          -1.8300    -0.0650    -1.1910 nd         1 ADK      -0.594100
     10 C8          -2.4770    -0.0170    -0.0060 cc         1 ADK       0.531200
     11 C3A          0.7380     0.0390     2.8250 c3         1 ADK       0.054900
     12 HC2          2.8390    -0.0260     1.0950 h5         1 ADK       0.047100
     13 HN61         1.6730     0.2040    -3.0170 hn         1 ADK       0.513000
     14 HN62        -0.0350     0.1890    -3.1990 hn         1 ADK       0.513000
     15 H8          -3.5570     0.0030     0.0840 h5         1 ADK       0.051800
     16 H3A1         1.7750     0.0330     3.1820 h1         1 ADK       0.063700
     17 H3A2         0.2440     0.9540     3.1760 h1         1 ADK       0.063700
     18 H3A3         0.2140    -0.8330     3.2360 h1         1 ADK       0.063700
@<TRIPOS>BOND
     1     1     2 2   
     2     1    10 1   
     3     2     3 1   
     4     2     8 1   
     5     3     4 1   
     6     3    11 1   
     7     4     5 2   
     8     4    12 1   
     9     5     6 1   
    10     6     7 1   
    11     6     8 2   
    12     7    13 1   
    13     7    14 1   
    14     8     9 1   
    15     9    10 2   
    16    10    15 1   
    17    11    16 1   
    18    11    17 1   
    19    11    18 1   
@<TRIPOS>SUBSTRUCTURE
     1 ADK         1 TEMP              0 ****  ****    0 ROOT
