@<TRIPOS>MOLECULE
ADK
   18    19     1     0     0
SMALL
bcc


@<TRIPOS>ATOM
      1 N9          -1.7190    -0.0040     1.1810 nc         1 ADK      -0.431300
      2 C4          -0.4890    -0.0020     0.6890 cd         1 ADK      -0.044300
      3 N3           0.6990    -0.0000     1.3610 na         1 ADK      -0.168900
      4 C2           1.8090    -0.0010     0.6140 cc         1 ADK       0.590400
      5 N1           1.8500    -0.0030    -0.6890 nd         1 ADK      -0.813000
      6 C6           0.7000    -0.0040    -1.4030 cc         1 ADK       0.803200
      7 N6           0.7890    -0.0100    -2.7280 nv         1 ADK      -0.928500
      8 C5          -0.5150    -0.0050    -0.7090 cd         1 ADK      -0.175900
      9 N7          -1.8160    -0.0080    -1.1060 nd         1 ADK      -0.594100
     10 C8          -2.4640    -0.0080     0.0480 cc         1 ADK       0.531200
     11 C3A          0.7330     0.0010     2.8140 c3         1 ADK       0.025600
     12 HC2          2.7450     0.0000     1.1590 h5         1 ADK       0.047100
     13 HN61         1.6860     0.0380    -3.1800 hn         1 ADK       0.457800
     14 HN62        -0.0370     0.0350    -3.2990 hn         1 ADK       0.457800
     15 H8          -3.5460    -0.0100     0.0980 h5         1 ADK       0.051800
     16 H3A1         1.7670    -0.0090     3.1460 h1         1 ADK       0.063700
     17 H3A2         0.2410     0.8920     3.1960 h1         1 ADK       0.063700
     18 H3A3         0.2260    -0.8810     3.1970 h1         1 ADK       0.063700
@<TRIPOS>BOND
     1     1     2 2   
     2     1    10 1   
     3     2     3 1   
     4     2     8 1   
     5     3     4 1   
     6     3    11 1   
     7     4     5 2   
     8     4    12 1   
     9     5     6 1   
    10     6     7 1   
    11     6     8 2   
    12     7    13 1   
    13     7    14 1   
    14     8     9 1   
    15     9    10 2   
    16    10    15 1   
    17    11    16 1   
    18    11    17 1   
    19    11    18 1   
@<TRIPOS>SUBSTRUCTURE
     1 ADK         1 TEMP              0 ****  ****    0 ROOT
