@<TRIPOS>MOLECULE
ADL
   32    34     1     0     0
SMALL
bcc


@<TRIPOS>ATOM
      1 C1           0.6980     0.2950    -4.9980 ca         1 ADL      -0.057000
      2 C2           1.5980     0.2610    -3.9410 ca         1 ADL      -0.211000
      3 C3           1.1430     0.0560    -2.6500 ca         1 ADL       0.032700
      4 C4          -0.2290    -0.1180    -2.4110 ca         1 ADL      -0.267600
      5 C5          -1.1380    -0.0830    -3.4980 ca         1 ADL       0.225100
      6 C6          -0.6590     0.1260    -4.7880 ca         1 ADL      -0.216000
      7 C7          -0.7230    -0.3360    -1.0580 c          1 ADL       0.635300
      8 C8           0.2040    -0.3700     0.0610 ca         1 ADL      -0.294600
      9 C9           1.5810    -0.1980    -0.1560 ca         1 ADL      -0.023300
     10 C10          2.1320     0.0220    -1.5290 c6         1 ADL       0.000200
     11 C11         -0.2810    -0.5750     1.3760 ca         1 ADL       0.252100
     12 C12          0.6000    -0.6170     2.4630 ca         1 ADL      -0.045300
     13 C13          1.9480    -0.4480     2.2040 ca         1 ADL      -0.073000
     14 C14          2.4440    -0.2390     0.9210 ca         1 ADL      -0.193000
     15 C15          0.0730    -0.8270     3.8450 c3         1 ADL      -0.180100
     16 C16         -0.6950     0.3880     4.4230 c          1 ADL       0.941600
     17 O1          -2.4490    -0.2430    -3.3380 oh         1 ADL      -0.519100
     18 O2          -1.9470    -0.4950    -0.8650 o          1 ADL      -0.648100
     19 O3          -1.5750    -0.7470     1.6340 oh         1 ADL      -0.468100
     20 O5          -0.5850     1.4730     3.8260 o          1 ADL      -0.831800
     21 O4          -1.3370     0.1670     5.4700 o          1 ADL      -0.831800
     22 HC1          1.0600     0.4560    -6.0050 ha         1 ADL       0.122000
     23 HC2          2.6570     0.3940    -4.1240 ha         1 ADL       0.128000
     24 HC6         -1.3570     0.1510    -5.6150 ha         1 ADL       0.141000
     25 H101         2.7010     0.9570    -1.5360 hc         1 ADL       0.061200
     26 H102         2.8700    -0.7570    -1.7390 hc         1 ADL       0.061200
     27 HC13         2.6430    -0.4790     3.0350 ha         1 ADL       0.128000
     28 HC14         3.5090    -0.1130     0.7660 ha         1 ADL       0.115000
     29 H151         0.9100    -1.0400     4.5160 hc         1 ADL       0.036200
     30 H152        -0.5720    -1.7080     3.8890 hc         1 ADL       0.036200
     31 HO1         -2.6180    -0.3810    -2.3790 ho         1 ADL       0.484000
     32 HO3         -2.0620    -0.7040     0.7810 ho         1 ADL       0.459000
@<TRIPOS>BOND
     1     1     2 ar  
     2     1     6 ar  
     3     1    22 1   
     4     2     3 ar  
     5     2    23 1   
     6     3     4 ar  
     7     3    10 1   
     8     4     5 ar  
     9     4     7 1   
    10     5     6 ar  
    11     5    17 1   
    12     6    24 1   
    13     7     8 1   
    14     7    18 2   
    15     8     9 ar  
    16     8    11 ar  
    17     9    10 1   
    18     9    14 ar  
    19    10    25 1   
    20    10    26 1   
    21    11    12 ar  
    22    11    19 1   
    23    12    13 ar  
    24    12    15 1   
    25    13    14 ar  
    26    13    27 1   
    27    14    28 1   
    28    15    16 1   
    29    15    29 1   
    30    15    30 1   
    31    16    20 1   
    32    16    21 1   
    33    17    31 1   
    34    19    32 1   
@<TRIPOS>SUBSTRUCTURE
     1 ADL         1 TEMP              0 ****  ****    0 ROOT
