@<TRIPOS>MOLECULE
ADL
   32    34     1     0     0
SMALL
No Charge or Current Charge


@<TRIPOS>ATOM
      1 C1           0.7190     0.2970    -5.0790 ca         1 ADL      -0.039000
      2 C2           1.5720     0.3240    -3.9670 ca         1 ADL      -0.193000
      3 C3           1.0770     0.0850    -2.6710 ca         1 ADL       0.032700
      4 C4          -0.2960    -0.1850    -2.4820 ca         1 ADL      -0.267600
      5 C5          -1.1480    -0.2090    -3.6110 ca         1 ADL       0.225100
      6 C6          -0.6430     0.0300    -4.8950 ca         1 ADL      -0.198000
      7 C7          -0.8300    -0.4410    -1.0990 c          1 ADL       0.635300
      8 C8           0.1080    -0.4110     0.0800 ca         1 ADL      -0.294600
      9 C9           1.4780    -0.1400    -0.1220 ca         1 ADL      -0.023300
     10 C10          2.0620     0.1300    -1.5070 c6         1 ADL       0.000200
     11 C11         -0.3600    -0.6510     1.3980 ca         1 ADL       0.252100
     12 C12          0.5290    -0.6230     2.5020 ca         1 ADL      -0.045300
     13 C13          1.8880    -0.3480     2.2730 ca         1 ADL      -0.055000
     14 C14          2.3550    -0.1110     0.9750 ca         1 ADL      -0.175000
     15 C15          0.0650    -0.8720     3.9460 c3         1 ADL      -0.180100
     16 C16         -0.2750     0.4680     4.6200 c          1 ADL       0.731000
     17 O1          -2.4770    -0.4640    -3.4770 oh         1 ADL      -0.558100
     18 O2          -2.0280    -0.6730    -0.9360 o          1 ADL      -0.648100
     19 O3          -1.6820    -0.9180     1.6040 oh         1 ADL      -0.507100
     20 O5           0.6380     1.0940     5.1390 o          1 ADL      -0.726500
     21 O4          -1.4120     0.9020     4.5110 o          1 ADL      -0.726500
     22 HC1          1.1120     0.4830    -6.0760 ha         1 ADL       0.104000
     23 HC2          2.6300     0.5320    -4.1130 ha         1 ADL       0.110000
     24 HC6         -1.3110     0.0080    -5.7520 ha         1 ADL       0.123000
     25 H101         2.5490     1.1150    -1.4980 hc         1 ADL       0.061200
     26 H102         2.8640    -0.5960    -1.6980 hc         1 ADL       0.061200
     27 HC13         2.5870    -0.3160     3.1060 ha         1 ADL       0.110000
     28 HC14         3.4110     0.1000     0.8200 ha         1 ADL       0.097000
     29 H151         0.9030    -1.3450     4.4700 hc         1 ADL       0.036200
     30 H152        -0.8210    -1.5160     3.9190 hc         1 ADL       0.036200
     31 HO1         -2.6200    -0.6010    -2.5030 ho         1 ADL       0.523000
     32 HO3         -2.1010    -0.8810     0.7050 ho         1 ADL       0.498000
@<TRIPOS>BOND
     1     1     2 ar  
     2     1     6 ar  
     3     1    22 1   
     4     2     3 ar  
     5     2    23 1   
     6     3     4 ar  
     7     3    10 1   
     8     4     5 ar  
     9     4     7 1   
    10     5     6 ar  
    11     5    17 1   
    12     6    24 1   
    13     7     8 1   
    14     7    18 2   
    15     8     9 ar  
    16     8    11 ar  
    17     9    10 1   
    18     9    14 ar  
    19    10    25 1   
    20    10    26 1   
    21    11    12 ar  
    22    11    19 1   
    23    12    13 ar  
    24    12    15 1   
    25    13    14 ar  
    26    13    27 1   
    27    14    28 1   
    28    15    16 1   
    29    15    29 1   
    30    15    30 1   
    31    16    20 1   
    32    16    21 1   
    33    17    31 1   
    34    19    32 1   
@<TRIPOS>SUBSTRUCTURE
     1 ADL         1 TEMP              0 ****  ****    0 ROOT
