@<TRIPOS>MOLECULE
ADM
   26    28     1     0     0
SMALL
abcg2


@<TRIPOS>ATOM
      1 C1          -1.5160     0.1800     0.2520 c6         1 ADM      -0.058950
      2 C2          -0.7090     1.0120     1.2520 c6         1 ADM      -0.067400
      3 C3           0.7890     0.8360     0.9810 c6         1 ADM      -0.058950
      4 C4           1.1070     1.2960    -0.4440 c6         1 ADM      -0.067400
      5 C5           0.3050     0.4590    -1.4450 c6         1 ADM      -0.058950
      6 C6           0.6750    -1.0190    -1.2870 c6         1 ADM      -0.067400
      7 C7           0.3540    -1.4810     0.1360 c6         1 ADM      -0.058950
      8 C8          -1.1430    -1.2970     0.4060 c6         1 ADM      -0.067400
      9 C9          -1.1920     0.6390    -1.1720 c6         1 ADM      -0.067400
     10 C10          1.1590    -0.6420     1.1330 c6         1 ADM      -0.067400
     11 H1          -2.5860     0.3090     0.4460 hc         1 ADM       0.046700
     12 H21         -0.9860     2.0690     1.1750 hc         1 ADM       0.037700
     13 H22         -0.9420     0.6980     2.2750 hc         1 ADM       0.037700
     14 H3           1.3630     1.4330     1.6960 hc         1 ADM       0.046700
     15 H41          0.8620     2.3570    -0.5610 hc         1 ADM       0.037700
     16 H42          2.1790     1.1980    -0.6420 hc         1 ADM       0.037700
     17 H5           0.5330     0.7890    -2.4630 hc         1 ADM       0.046700
     18 H61          1.7400    -1.1640    -1.5000 hc         1 ADM       0.037700
     19 H62          0.1260    -1.6240    -2.0150 hc         1 ADM       0.037700
     20 H7           0.6200    -2.5370     0.2470 hc         1 ADM       0.046700
     21 H81         -1.3870    -1.6460     1.4150 hc         1 ADM       0.037700
     22 H82         -1.7280    -1.9090    -0.2880 hc         1 ADM       0.037700
     23 H91         -1.7780     0.0650    -1.8970 hc         1 ADM       0.037700
     24 H92         -1.4750     1.6890    -1.3020 hc         1 ADM       0.037700
     25 H101         0.9590    -0.9780     2.1560 hc         1 ADM       0.037700
     26 H102         2.2320    -0.7810     0.9620 hc         1 ADM       0.037700
@<TRIPOS>BOND
     1     1     2 1   
     2     1     8 1   
     3     1     9 1   
     4     1    11 1   
     5     2     3 1   
     6     2    12 1   
     7     2    13 1   
     8     3     4 1   
     9     3    10 1   
    10     3    14 1   
    11     4     5 1   
    12     4    15 1   
    13     4    16 1   
    14     5     6 1   
    15     5     9 1   
    16     5    17 1   
    17     6     7 1   
    18     6    18 1   
    19     6    19 1   
    20     7     8 1   
    21     7    10 1   
    22     7    20 1   
    23     8    21 1   
    24     8    22 1   
    25     9    23 1   
    26     9    24 1   
    27    10    25 1   
    28    10    26 1   
@<TRIPOS>SUBSTRUCTURE
     1 ADM         1 TEMP              0 ****  ****    0 ROOT
