@<TRIPOS>MOLECULE
ADM
   26    28     1     0     0
SMALL
No Charge or Current Charge


@<TRIPOS>ATOM
      1 C1          -1.5410     0.1810     0.2580 c6         1 ADM      -0.058950
      2 C2          -0.7200     1.0300     1.2730 c6         1 ADM      -0.067400
      3 C3           0.8020     0.8500     1.0000 c6         1 ADM      -0.058950
      4 C4           1.1250     1.3170    -0.4500 c6         1 ADM      -0.067400
      5 C5           0.3090     0.4680    -1.4700 c6         1 ADM      -0.058950
      6 C6           0.6870    -1.0340    -1.3100 c6         1 ADM      -0.067400
      7 C7           0.3630    -1.5070     0.1380 c6         1 ADM      -0.058950
      8 C8          -1.1590    -1.3200     0.4130 c6         1 ADM      -0.067400
      9 C9          -1.2130     0.6500    -1.1910 c6         1 ADM      -0.067400
     10 C10          1.1790    -0.6540     1.1540 c6         1 ADM      -0.067400
     11 H1          -2.6150     0.3100     0.4520 hc         1 ADM       0.046700
     12 H21         -0.9970     2.0910     1.1910 hc         1 ADM       0.037700
     13 H22         -0.9600     0.7260     2.3020 hc         1 ADM       0.037700
     14 H3           1.3790     1.4490     1.7180 hc         1 ADM       0.046700
     15 H41          0.8860     2.3830    -0.5670 hc         1 ADM       0.037700
     16 H42          2.2010     1.2170    -0.6500 hc         1 ADM       0.037700
     17 H5           0.5380     0.8000    -2.4920 hc         1 ADM       0.046700
     18 H61          1.7540    -1.1810    -1.5270 hc         1 ADM       0.037700
     19 H62          0.1350    -1.6430    -2.0400 hc         1 ADM       0.037700
     20 H7           0.6300    -2.5670     0.2480 hc         1 ADM       0.046700
     21 H81         -1.4070    -1.6720     1.4240 hc         1 ADM       0.037700
     22 H82         -1.7480    -1.9350    -0.2820 hc         1 ADM       0.037700
     23 H91         -1.8020     0.0750    -1.9180 hc         1 ADM       0.037700
     24 H92         -1.4990     1.7030    -1.3230 hc         1 ADM       0.037700
     25 H101         0.9780    -0.9920     2.1800 hc         1 ADM       0.037700
     26 H102         2.2560    -0.7940     0.9870 hc         1 ADM       0.037700
@<TRIPOS>BOND
     1     1     2 1   
     2     1     8 1   
     3     1     9 1   
     4     1    11 1   
     5     2     3 1   
     6     2    12 1   
     7     2    13 1   
     8     3     4 1   
     9     3    10 1   
    10     3    14 1   
    11     4     5 1   
    12     4    15 1   
    13     4    16 1   
    14     5     6 1   
    15     5     9 1   
    16     5    17 1   
    17     6     7 1   
    18     6    18 1   
    19     6    19 1   
    20     7     8 1   
    21     7    10 1   
    22     7    20 1   
    23     8    21 1   
    24     8    22 1   
    25     9    23 1   
    26     9    24 1   
    27    10    25 1   
    28    10    26 1   
@<TRIPOS>SUBSTRUCTURE
     1 ADM         1 TEMP              0 ****  ****    0 ROOT
