@<TRIPOS>MOLECULE
ADN
   32    34     1     0     0
SMALL
bcc


@<TRIPOS>ATOM
      1 O5          -1.7860     1.7230    -3.8180 oh         1 ADN      -0.577800
      2 C5          -1.3730     0.3990    -3.5870 c3         1 ADN       0.143400
      3 C4           0.0070     0.4080    -2.9780 c5         1 ADN       0.142100
      4 O4          -0.0320     0.9850    -1.6790 os         1 ADN      -0.381600
      5 C3           0.5730    -0.9930    -2.7670 c5         1 ADN       0.066100
      6 O3           1.1850    -1.4570    -3.9360 oh         1 ADN      -0.581800
      7 C2           1.5500    -0.7700    -1.6050 c5         1 ADN       0.078100
      8 O2           2.7630    -0.2460    -2.0730 oh         1 ADN      -0.577800
      9 C1           0.8540     0.3350    -0.8040 c5         1 ADN       0.253800
     10 N9           0.1250    -0.1470     0.3480 na         1 ADN      -0.268000
     11 C8          -0.8460    -1.1110     0.3990 cc         1 ADN       0.401700
     12 N7          -1.3520    -1.2770     1.5830 nd         1 ADN      -0.550100
     13 C7          -0.6880    -0.3690     2.3670 ca         1 ADN      -0.235200
     14 C6          -0.7700    -0.0420     3.7340 ca         1 ADN       0.781200
     15 N6          -1.6140    -0.6460     4.5700 nv         1 ADN      -0.953500
     16 N1           0.0330     0.9230     4.1950 nb         1 ADN      -0.828000
     17 C10          0.8670     1.5290     3.3550 ca         1 ADN       0.712900
     18 N3           1.0350     1.3100     2.0630 nb         1 ADN      -0.743000
     19 C9           0.2310     0.3480     1.6180 ca         1 ADN       0.470800
     20 HO5         -2.6440     1.6990    -4.2500 ho         1 ADN       0.407000
     21 H5'1        -1.3200    -0.1820    -4.5170 h1         1 ADN       0.026200
     22 H5'2        -2.0590    -0.1330    -2.9140 h1         1 ADN       0.026200
     23 H4           0.6860     0.9820    -3.6230 h1         1 ADN       0.090700
     24 H3          -0.2300    -1.6690    -2.4460 h1         1 ADN       0.045700
     25 HO3          1.2320    -2.4180    -3.9030 ho         1 ADN       0.417000
     26 H2           1.7050    -1.6740    -1.0040 h1         1 ADN       0.067700
     27 HO2          2.9740    -0.6890    -2.9040 ho         1 ADN       0.427000
     28 H1           1.5930     1.0360    -0.4070 h2         1 ADN       0.134700
     29 H8          -1.1450    -1.6710    -0.4750 h5         1 ADN       0.056800
     30 HN61        -1.6120    -0.4140     5.5480 hn         1 ADN       0.451300
     31 HN62        -2.1910    -1.4100     4.2640 hn         1 ADN       0.451300
     32 H6           1.4880     2.3030     3.7930 h5         1 ADN       0.048100
@<TRIPOS>BOND
     1     1     2 1   
     2     1    20 1   
     3     2     3 1   
     4     2    21 1   
     5     2    22 1   
     6     3     4 1   
     7     3     5 1   
     8     3    23 1   
     9     4     9 1   
    10     5     6 1   
    11     5     7 1   
    12     5    24 1   
    13     6    25 1   
    14     7     8 1   
    15     7     9 1   
    16     7    26 1   
    17     8    27 1   
    18     9    10 1   
    19     9    28 1   
    20    10    11 1   
    21    10    19 1   
    22    11    12 2   
    23    11    29 1   
    24    12    13 1   
    25    13    14 ar  
    26    13    19 ar  
    27    14    15 1   
    28    14    16 ar  
    29    15    30 1   
    30    15    31 1   
    31    16    17 ar  
    32    17    18 ar  
    33    17    32 1   
    34    18    19 ar  
@<TRIPOS>SUBSTRUCTURE
     1 ADN         1 TEMP              0 ****  ****    0 ROOT
