@<TRIPOS>MOLECULE
ADN
   32    34     1     0     0
SMALL
No Charge or Current Charge


@<TRIPOS>ATOM
      1 O5          -1.4160     2.0850    -3.9610 oh         1 ADN      -0.700000
      2 C5          -1.2230     0.6770    -3.7290 c3         1 ADN       0.166600
      3 C4           0.0800     0.4040    -2.9260 c5         1 ADN       0.165300
      4 O4          -0.0670     0.8330    -1.5530 os         1 ADN      -0.428000
      5 C3           0.4610    -1.1000    -2.7780 c5         1 ADN       0.089300
      6 O3           1.0230    -1.6860    -3.9680 oh         1 ADN      -0.704000
      7 C2           1.5380    -0.9850    -1.6620 c5         1 ADN       0.101300
      8 O2           2.7800    -0.5950    -2.2640 oh         1 ADN      -0.700000
      9 C1           0.9070     0.1290    -0.7410 c5         1 ADN       0.306300
     10 N9           0.2340    -0.3140     0.4810 na         1 ADN      -0.297300
     11 C8          -0.3900    -1.5510     0.6800 cc         1 ADN       0.401700
     12 N7          -0.8880    -1.6580     1.9250 nd         1 ADN      -0.550100
     13 C7          -0.5560    -0.4320     2.5100 ca         1 ADN      -0.104600
     14 C6          -0.8140     0.0430     3.8120 ca         1 ADN       0.452900
     15 N6          -1.4760    -0.6940     4.7430 nv         1 ADN      -1.063900
     16 N1          -0.4010     1.2590     4.2040 nb         1 ADN      -0.302000
     17 C10          0.2630     1.9890     3.2750 ca         1 ADN       0.186900
     18 N3           0.5520     1.6160     2.0050 nb         1 ADN      -0.217000
     19 C9           0.1250     0.3890     1.6460 ca         1 ADN       0.142500
     20 HO5         -2.2860     2.1860    -4.4150 ho         1 ADN       0.506000
     21 H5'1        -1.1590     0.1480    -4.6890 h1         1 ADN       0.026200
     22 H5'2        -2.0750     0.2570    -3.1760 h1         1 ADN       0.026200
     23 H4           0.9010     0.9700    -3.3900 h1         1 ADN       0.090700
     24 H3          -0.4010    -1.6860    -2.4260 h1         1 ADN       0.045700
     25 HO3          0.2850    -2.0990    -4.4790 ho         1 ADN       0.516000
     26 H2           1.6620    -1.9360    -1.1240 h1         1 ADN       0.067700
     27 HO2          2.6990    -0.9570    -3.1840 ho         1 ADN       0.526000
     28 H1           1.6970     0.8200    -0.4180 h2         1 ADN       0.134700
     29 H8          -0.4490    -2.3080    -0.0940 h5         1 ADN       0.056800
     30 HN61        -1.3700    -0.4340     5.7200 hn         1 ADN       0.506500
     31 HN62        -1.5990    -1.6850     4.5450 hn         1 ADN       0.506500
     32 H6           0.6010     2.9770     3.5810 h5         1 ADN       0.048100
@<TRIPOS>BOND
     1     1     2 1   
     2     1    20 1   
     3     2     3 1   
     4     2    21 1   
     5     2    22 1   
     6     3     4 1   
     7     3     5 1   
     8     3    23 1   
     9     4     9 1   
    10     5     6 1   
    11     5     7 1   
    12     5    24 1   
    13     6    25 1   
    14     7     8 1   
    15     7     9 1   
    16     7    26 1   
    17     8    27 1   
    18     9    10 1   
    19     9    28 1   
    20    10    11 1   
    21    10    19 1   
    22    11    12 2   
    23    11    29 1   
    24    12    13 1   
    25    13    14 ar  
    26    13    19 ar  
    27    14    15 1   
    28    14    16 ar  
    29    15    30 1   
    30    15    31 1   
    31    16    17 ar  
    32    17    18 ar  
    33    17    32 1   
    34    18    19 ar  
@<TRIPOS>SUBSTRUCTURE
     1 ADN         1 TEMP              0 ****  ****    0 ROOT
