@<TRIPOS>MOLECULE
ADO
   25    27     1     0     0
SMALL
abcg2


@<TRIPOS>ATOM
      1 C1           1.2320     0.0250    -0.5990 c6         1 ADO      -0.167700
      2 C2          -0.0170     0.0040    -1.4460 c          1 ADO       0.583100
      3 C3          -1.2800    -0.0350    -0.6210 c6         1 ADO      -0.167700
      4 C4          -1.3050     1.2090     0.2840 c6         1 ADO      -0.063400
      5 C5          -0.0690     1.2250     1.1830 c6         1 ADO      -0.063700
      6 C6          -0.0460    -0.0350     2.0520 c6         1 ADO      -0.067400
      7 C7          -0.0090    -1.2740     1.1570 c6         1 ADO      -0.063700
      8 C8           1.2420    -1.2400     0.2780 c6         1 ADO      -0.063400
      9 C9           1.1830     1.2680     0.3060 c6         1 ADO      -0.063400
     10 C10         -1.2460    -1.2980     0.2580 c6         1 ADO      -0.063400
     11 O2          -0.0070     0.0190    -2.6580 o          1 ADO      -0.520100
     12 H1           2.1110     0.0530    -1.2470 hc         1 ADO       0.075700
     13 H3          -2.1480    -0.0490    -1.2830 hc         1 ADO       0.075700
     14 H41         -2.2200     1.1900     0.8850 hc         1 ADO       0.047200
     15 H42         -1.3440     2.1190    -0.3230 hc         1 ADO       0.047200
     16 H5          -0.0950     2.1130     1.8210 hc         1 ADO       0.054700
     17 H61          0.8290    -0.0200     2.7090 hc         1 ADO       0.042700
     18 H62         -0.9300    -0.0630     2.6950 hc         1 ADO       0.042700
     19 H7           0.0080    -2.1760     1.7740 hc         1 ADO       0.054700
     20 H81          1.2910    -2.1360    -0.3480 hc         1 ADO       0.047200
     21 H82          2.1480    -1.2350     0.8930 hc         1 ADO       0.047200
     22 H91          2.0870     1.2900     0.9240 hc         1 ADO       0.047200
     23 H92          1.1920     2.1790    -0.2990 hc         1 ADO       0.047200
     24 H101        -1.2450    -2.1960    -0.3660 hc         1 ADO       0.047200
     25 H102        -2.1590    -1.3320     0.8610 hc         1 ADO       0.047200
@<TRIPOS>BOND
     1     1     2 1   
     2     1     8 1   
     3     1     9 1   
     4     1    12 1   
     5     2     3 1   
     6     2    11 2   
     7     3     4 1   
     8     3    10 1   
     9     3    13 1   
    10     4     5 1   
    11     4    14 1   
    12     4    15 1   
    13     5     6 1   
    14     5     9 1   
    15     5    16 1   
    16     6     7 1   
    17     6    17 1   
    18     6    18 1   
    19     7     8 1   
    20     7    10 1   
    21     7    19 1   
    22     8    20 1   
    23     8    21 1   
    24     9    22 1   
    25     9    23 1   
    26    10    24 1   
    27    10    25 1   
@<TRIPOS>SUBSTRUCTURE
     1 ADO         1 TEMP              0 ****  ****    0 ROOT
