@<TRIPOS>MOLECULE
ADO
   25    27     1     0     0
SMALL
No Charge or Current Charge


@<TRIPOS>ATOM
      1 C1           1.2660     0.0250    -0.6320 c6         1 ADO      -0.167700
      2 C2          -0.0170     0.0040    -1.4840 c          1 ADO       0.583100
      3 C3          -1.3140    -0.0350    -0.6530 c6         1 ADO      -0.167700
      4 C4          -1.3370     1.2110     0.2860 c6         1 ADO      -0.063400
      5 C5          -0.0680     1.2390     1.1900 c6         1 ADO      -0.063700
      6 C6          -0.0460    -0.0350     2.0770 c6         1 ADO      -0.067400
      7 C7          -0.0090    -1.2880     1.1630 c6         1 ADO      -0.063700
      8 C8           1.2750    -1.2410     0.2810 c6         1 ADO      -0.063400
      9 C9           1.2160     1.2710     0.3080 c6         1 ADO      -0.063400
     10 C10         -1.2780    -1.3010     0.2590 c6         1 ADO      -0.063400
     11 O2          -0.0070     0.0180    -2.7090 o          1 ADO      -0.520100
     12 H1           2.1450     0.0530    -1.2900 hc         1 ADO       0.075700
     13 H3          -2.1820    -0.0480    -1.3260 hc         1 ADO       0.075700
     14 H41         -2.2450     1.2040     0.9060 hc         1 ADO       0.047200
     15 H42         -1.3850     2.1300    -0.3150 hc         1 ADO       0.047200
     16 H5          -0.0950     2.1300     1.8320 hc         1 ADO       0.054700
     17 H61          0.8290    -0.0210     2.7420 hc         1 ADO       0.042700
     18 H62         -0.9310    -0.0630     2.7280 hc         1 ADO       0.042700
     19 H7           0.0070    -2.1940     1.7860 hc         1 ADO       0.054700
     20 H81          1.3320    -2.1460    -0.3400 hc         1 ADO       0.047200
     21 H82          2.1720    -1.2480     0.9150 hc         1 ADO       0.047200
     22 H91          2.1120     1.3060     0.9430 hc         1 ADO       0.047200
     23 H92          1.2300     2.1910    -0.2930 hc         1 ADO       0.047200
     24 H101        -1.2830    -2.2070    -0.3620 hc         1 ADO       0.047200
     25 H102        -2.1850    -1.3500     0.8780 hc         1 ADO       0.047200
@<TRIPOS>BOND
     1     1     2 1   
     2     1     8 1   
     3     1     9 1   
     4     1    12 1   
     5     2     3 1   
     6     2    11 2   
     7     3     4 1   
     8     3    10 1   
     9     3    13 1   
    10     4     5 1   
    11     4    14 1   
    12     4    15 1   
    13     5     6 1   
    14     5     9 1   
    15     5    16 1   
    16     6     7 1   
    17     6    17 1   
    18     6    18 1   
    19     7     8 1   
    20     7    10 1   
    21     7    19 1   
    22     8    20 1   
    23     8    21 1   
    24     9    22 1   
    25     9    23 1   
    26    10    24 1   
    27    10    25 1   
@<TRIPOS>SUBSTRUCTURE
     1 ADO         1 TEMP              0 ****  ****    0 ROOT
