@<TRIPOS>MOLECULE
ADQ
   61    64     1     0     0
SMALL
No Charge or Current Charge


@<TRIPOS>ATOM
      1 PB          -1.8220    -0.0820    -2.9860 p5         1 ADQ       1.469800
      2 O1B         -2.5400    -1.2980    -3.4630 o          1 ADQ      -0.842500
      3 O2B         -2.7400     1.0330    -2.6150 o          1 ADQ      -0.842500
      4 O3B         -0.8270     0.4460    -4.1300 os         1 ADQ      -0.584400
      5 PA          -1.2790    -1.1620    -0.6680 p5         1 ADQ       1.453800
      6 O1A         -1.2550    -2.6310    -0.9230 o          1 ADQ      -0.853000
      7 O2A         -2.5850    -0.6950    -0.1230 o          1 ADQ      -0.853000
      8 O3A         -0.7150    -0.3470    -1.8980 os         1 ADQ      -0.689800
      9 O5D         -0.0710    -0.7840     0.3290 os         1 ADQ      -0.559400
     10 C5D          0.0200     0.5130     0.9440 c3         1 ADQ       0.235600
     11 C4D         -0.8990     0.6140     2.1970 c5         1 ADQ       0.118300
     12 O4D         -0.6590    -0.4770     3.1170 os         1 ADQ      -0.398000
     13 C3D         -0.6490     1.8670     3.0810 c5         1 ADQ       0.086300
     14 O3D         -1.1520     3.0850     2.5070 oh         1 ADQ      -0.692000
     15 C2D         -1.4590     1.4580     4.3460 c5         1 ADQ       0.092300
     16 O2D         -2.8500     1.7230     4.1160 oh         1 ADQ      -0.704000
     17 C1D         -1.1230    -0.0820     4.4320 c5         1 ADQ       0.315300
     18 N9          -0.1170    -0.4980     5.4110 na         1 ADQ      -0.295300
     19 C8           0.9530     0.2760     5.8790 cc         1 ADQ       0.449700
     20 N7           1.6760    -0.3920     6.8010 nd         1 ADQ      -0.586100
     21 C5           1.0180    -1.6230     6.8970 ca         1 ADQ      -0.088600
     22 C6           1.3160    -2.7420     7.7030 ca         1 ADQ       0.434900
     23 N6           2.3700    -2.7720     8.5630 nv         1 ADQ      -1.075900
     24 N1           0.5660    -3.8550     7.6530 nb         1 ADQ      -0.322000
     25 C2          -0.4820    -3.8270     6.7940 ca         1 ADQ       0.153900
     26 N3          -0.8430    -2.7990     5.9880 nb         1 ADQ      -0.204000
     27 C4          -0.0660    -1.7000     6.0590 ca         1 ADQ       0.102500
     28 C1          -0.0400    -0.4910    -4.8720 c6         1 ADQ       0.426300
     29 C10          1.4400    -0.6360    -4.3320 c6         1 ADQ       0.118300
     30 C3           2.1880     0.7160    -4.5190 c6         1 ADQ       0.136300
     31 C11          2.1320     1.1640    -6.0070 c6         1 ADQ       0.146300
     32 C7           0.6440     1.2350    -6.4730 c6         1 ADQ       0.173300
     33 C9           0.5170     1.5930    -7.9920 c3         1 ADQ       0.173600
     34 O2           1.5470    -1.0590    -2.9540 oh         1 ADQ      -0.704000
     35 O3           3.5550     0.5910    -4.0780 oh         1 ADQ      -0.705000
     36 O4           2.8160     2.4210    -6.1540 oh         1 ADQ      -0.722000
     37 O5          -0.0090    -0.0480    -6.2480 os         1 ADQ      -0.476000
     38 O6          -0.8410     1.6060    -8.4670 oh         1 ADQ      -0.667000
     39 H5'1        -0.2590     1.3030     0.2340 h1         1 ADQ       0.025700
     40 H5'2         1.0560     0.7010     1.2530 h1         1 ADQ       0.025700
     41 H4D         -1.9480     0.5820     1.8760 h1         1 ADQ       0.123700
     42 H3D          0.4220     1.9620     3.3110 h1         1 ADQ       0.044700
     43 HO3         -0.5500     3.8170     2.7830 ho         1 ADQ       0.492000
     44 H2D         -1.1160     2.0020     5.2370 h1         1 ADQ       0.049700
     45 HO2         -2.8380     2.4480     3.4400 ho         1 ADQ       0.519000
     46 H1D         -2.0360    -0.6370     4.6860 h2         1 ADQ       0.109700
     47 H8           1.1490     1.2810     5.5230 h5         1 ADQ       0.111800
     48 HN61         2.6980    -3.6800     8.8830 hn         1 ADQ       0.496000
     49 HN62         3.0690    -2.0410     8.4610 hn         1 ADQ       0.496000
     50 H2          -1.0980    -4.7230     6.7470 h5         1 ADQ       0.030100
     51 H1          -0.5150    -1.4840    -4.8480 h2         1 ADQ       0.081700
     52 H7           1.9410    -1.3840    -4.9630 h1         1 ADQ       0.008700
     53 H3           1.6650     1.4750    -3.9140 h1         1 ADQ       0.097700
     54 H4           2.6430     0.4020    -6.6150 h1         1 ADQ       0.017700
     55 H5           0.1210     2.0150    -5.9010 h1         1 ADQ       0.116700
     56 H6'1         0.9710     2.5780    -8.1570 h1         1 ADQ       0.004200
     57 H6'2         1.1030     0.8640    -8.5670 h1         1 ADQ       0.004200
     58 HO2A         0.7370    -0.7150    -2.4800 ho         1 ADQ       0.497000
     59 HO3A         3.5160    -0.0690    -3.3460 ho         1 ADQ       0.454000
     60 HO4          3.6070     2.3390    -5.5670 ho         1 ADQ       0.500000
     61 HO6         -0.8020     1.7670    -9.4360 ho         1 ADQ       0.470000
@<TRIPOS>BOND
     1     1     2 1   
     2     1     3 1   
     3     1     4 1   
     4     1     8 1   
     5     4    28 1   
     6     5     6 1   
     7     5     7 1   
     8     5     8 1   
     9     5     9 1   
    10     9    10 1   
    11    10    11 1   
    12    10    39 1   
    13    10    40 1   
    14    11    12 1   
    15    11    13 1   
    16    11    41 1   
    17    12    17 1   
    18    13    14 1   
    19    13    15 1   
    20    13    42 1   
    21    14    43 1   
    22    15    16 1   
    23    15    17 1   
    24    15    44 1   
    25    16    45 1   
    26    17    18 1   
    27    17    46 1   
    28    18    19 1   
    29    18    27 1   
    30    19    20 2   
    31    19    47 1   
    32    20    21 1   
    33    21    22 ar  
    34    21    27 ar  
    35    22    23 1   
    36    22    24 ar  
    37    23    48 1   
    38    23    49 1   
    39    24    25 ar  
    40    25    26 ar  
    41    25    50 1   
    42    26    27 ar  
    43    28    29 1   
    44    28    37 1   
    45    28    51 1   
    46    29    30 1   
    47    29    34 1   
    48    29    52 1   
    49    30    31 1   
    50    30    35 1   
    51    30    53 1   
    52    31    32 1   
    53    31    36 1   
    54    31    54 1   
    55    32    33 1   
    56    32    37 1   
    57    32    55 1   
    58    33    38 1   
    59    33    56 1   
    60    33    57 1   
    61    34    58 1   
    62    35    59 1   
    63    36    60 1   
    64    38    61 1   
@<TRIPOS>SUBSTRUCTURE
     1 ADQ         1 TEMP              0 ****  ****    0 ROOT
