@<TRIPOS>MOLECULE
ADQ
   61    64     1     0     0
SMALL
abcg2


@<TRIPOS>ATOM
      1 PB          -1.5080     1.1060    -3.2890 p5         1 ADQ       1.469800
      2 O1B         -2.5000     1.3890    -4.3720 o          1 ADQ      -0.842500
      3 O2B         -0.7240     2.1950    -2.6370 o          1 ADQ      -0.842500
      4 O3B         -0.4660    -0.0740    -3.8010 os         1 ADQ      -0.584400
      5 PA          -3.0060     0.6520    -0.8170 p5         1 ADQ       1.453800
      6 O1A         -3.8480    -0.5020    -0.3630 o          1 ADQ      -0.853000
      7 O2A         -3.6240     1.9980    -1.0300 o          1 ADQ      -0.853000
      8 O3A         -2.2040     0.1430    -2.1460 os         1 ADQ      -0.689800
      9 O5D         -1.6880     0.7890     0.1630 os         1 ADQ      -0.559400
     10 C5D         -1.8450     1.3660     1.4370 c3         1 ADQ       0.235600
     11 C4D         -2.3350     0.3830     2.4780 c5         1 ADQ       0.118300
     12 O4D         -1.4370    -0.7250     2.5800 os         1 ADQ      -0.398000
     13 C3D         -2.3830     0.9810     3.8810 c5         1 ADQ       0.086300
     14 O3D         -3.6080     1.6240     4.0920 oh         1 ADQ      -0.692000
     15 C2D         -2.1730    -0.2580     4.7600 c5         1 ADQ       0.092300
     16 O2D         -3.3480    -1.0140     4.8560 oh         1 ADQ      -0.704000
     17 C1D         -1.1840    -1.0520     3.9090 c5         1 ADQ       0.315300
     18 N9           0.1990    -0.7070     4.2330 na         1 ADQ      -0.295300
     19 C8           1.0930     0.0200     3.4980 cc         1 ADQ       0.449700
     20 N7           2.2630     0.1220     4.0600 nd         1 ADQ      -0.586100
     21 C5           2.1400    -0.5820     5.2290 ca         1 ADQ      -0.088600
     22 C6           3.0350    -0.8700     6.2760 ca         1 ADQ       0.434900
     23 N6           4.2910    -0.4180     6.2960 nv         1 ADQ      -1.075900
     24 N1           2.5910    -1.6170     7.2920 nb         1 ADQ      -0.322000
     25 C2           1.3340    -2.0550     7.2760 ca         1 ADQ       0.153900
     26 N3           0.4060    -1.8530     6.3580 nb         1 ADQ      -0.204000
     27 C4           0.8640    -1.1090     5.3530 ca         1 ADQ       0.102500
     28 C1          -0.1800    -0.2400    -5.1520 c6         1 ADQ       0.426300
     29 C10          0.6220    -1.5330    -5.3140 c6         1 ADQ       0.118300
     30 C3           1.9780    -1.3840    -4.6400 c6         1 ADQ       0.136300
     31 C11          2.6950    -0.1540    -5.1820 c6         1 ADQ       0.146300
     32 C7           1.8000     1.0840    -5.0820 c6         1 ADQ       0.173300
     33 C9           2.4200     2.2600    -5.8070 c3         1 ADQ       0.173600
     34 O2          -0.0280    -2.6450    -4.7530 oh         1 ADQ      -0.704000
     35 O3           2.8140    -2.4930    -4.8890 oh         1 ADQ      -0.705000
     36 O4           3.8790     0.1070    -4.4680 oh         1 ADQ      -0.722000
     37 O5           0.5440     0.8310    -5.6860 os         1 ADQ      -0.476000
     38 O6           1.6310     3.4060    -5.5930 oh         1 ADQ      -0.667000
     39 H5'1        -2.5390     2.2150     1.4190 h1         1 ADQ       0.025700
     40 H5'2        -0.8700     1.7640     1.7380 h1         1 ADQ       0.025700
     41 H4D         -3.3260     0.0100     2.1980 h1         1 ADQ       0.123700
     42 H3D         -1.5390     1.6700     4.0250 h1         1 ADQ       0.044700
     43 HO3         -3.5190     2.2270     4.8380 ho         1 ADQ       0.492000
     44 H2D         -1.7650    -0.0080     5.7460 h1         1 ADQ       0.049700
     45 HO2         -4.0880    -0.4010     4.9490 ho         1 ADQ       0.519000
     46 H1D         -1.2930    -2.1280     4.0690 h2         1 ADQ       0.109700
     47 H8           0.8340     0.4470     2.5420 h5         1 ADQ       0.111800
     48 HN61         4.9260    -0.7290     7.0100 hn         1 ADQ       0.496000
     49 HN62         4.6750     0.0650     5.5020 hn         1 ADQ       0.496000
     50 H2           1.0410    -2.6560     8.1300 h5         1 ADQ       0.030100
     51 H1          -1.1010    -0.2840    -5.7450 h2         1 ADQ       0.081700
     52 H7           0.7850    -1.6750    -6.3930 h1         1 ADQ       0.008700
     53 H3           1.8280    -1.2500    -3.5590 h1         1 ADQ       0.097700
     54 H4           2.9110    -0.3350    -6.2480 h1         1 ADQ       0.017700
     55 H5           1.6670     1.3470    -4.0240 h1         1 ADQ       0.116700
     56 H6'1         3.4400     2.3980    -5.4330 h1         1 ADQ       0.004200
     57 H6'2         2.5000     2.0150    -6.8760 h1         1 ADQ       0.004200
     58 HO2A        -0.7380    -2.9180    -5.3410 ho         1 ADQ       0.497000
     59 HO3A         2.4660    -3.2500    -4.4080 ho         1 ADQ       0.454000
     60 HO4          4.4330    -0.6800    -4.5100 ho         1 ADQ       0.500000
     61 HO6          2.0320     4.1320    -6.0800 ho         1 ADQ       0.470000
@<TRIPOS>BOND
     1     1     2 1   
     2     1     3 1   
     3     1     4 1   
     4     1     8 1   
     5     4    28 1   
     6     5     6 1   
     7     5     7 1   
     8     5     8 1   
     9     5     9 1   
    10     9    10 1   
    11    10    11 1   
    12    10    39 1   
    13    10    40 1   
    14    11    12 1   
    15    11    13 1   
    16    11    41 1   
    17    12    17 1   
    18    13    14 1   
    19    13    15 1   
    20    13    42 1   
    21    14    43 1   
    22    15    16 1   
    23    15    17 1   
    24    15    44 1   
    25    16    45 1   
    26    17    18 1   
    27    17    46 1   
    28    18    19 1   
    29    18    27 1   
    30    19    20 2   
    31    19    47 1   
    32    20    21 1   
    33    21    22 ar  
    34    21    27 ar  
    35    22    23 1   
    36    22    24 ar  
    37    23    48 1   
    38    23    49 1   
    39    24    25 ar  
    40    25    26 ar  
    41    25    50 1   
    42    26    27 ar  
    43    28    29 1   
    44    28    37 1   
    45    28    51 1   
    46    29    30 1   
    47    29    34 1   
    48    29    52 1   
    49    30    31 1   
    50    30    35 1   
    51    30    53 1   
    52    31    32 1   
    53    31    36 1   
    54    31    54 1   
    55    32    33 1   
    56    32    37 1   
    57    32    55 1   
    58    33    38 1   
    59    33    56 1   
    60    33    57 1   
    61    34    58 1   
    62    35    59 1   
    63    36    60 1   
    64    38    61 1   
@<TRIPOS>SUBSTRUCTURE
     1 ADQ         1 TEMP              0 ****  ****    0 ROOT
