@<TRIPOS>MOLECULE
ADR
   24    24     1     0     0
SMALL
bcc


@<TRIPOS>ATOM
      1 C            0.0170     0.1710     0.8770 c6         1 ADR       0.146100
      2 O            1.2230    -0.2910     0.3000 os         1 ADR      -0.410600
      3 C1           1.4180     0.1570    -1.0210 c6         1 ADR       0.134400
      4 C2           0.3290    -0.3600    -1.9510 c6         1 ADR       0.128500
      5 N2           0.5300     0.2010    -3.2780 n8         1 ADR      -0.882800
      6 C3          -1.0210     0.0710    -1.3940 c6         1 ADR      -0.118400
      7 C4          -1.1720    -0.3440     0.0660 c6         1 ADR       0.116100
      8 O4          -2.3450     0.1850     0.6450 oh         1 ADR      -0.591800
      9 C5          -0.0020    -0.2940     2.3220 c3         1 ADR       0.161800
     10 N6           1.0990     0.2900     3.0700 n8         1 ADR      -0.885800
     11 HC          -0.0030     1.2740     0.8580 h1         1 ADR       0.065700
     12 H11          1.4330     1.2560    -1.0670 h1         1 ADR       0.055700
     13 H12          2.4010    -0.2020    -1.3360 h1         1 ADR       0.055700
     14 H2           0.3720    -1.4600    -1.9430 h1         1 ADR       0.025700
     15 H21          1.3700    -0.1910    -3.6870 hn         1 ADR       0.340800
     16 H22         -0.2260    -0.0970    -3.8830 hn         1 ADR       0.340800
     17 H31         -1.1030     1.1620    -1.4680 hc         1 ADR       0.055700
     18 H32         -1.8330    -0.3580    -1.9910 hc         1 ADR       0.055700
     19 H4          -1.1720    -1.4440     0.1260 h1         1 ADR       0.036700
     20 HO4         -3.1010    -0.1640     0.1630 ho         1 ADR       0.405000
     21 H51         -0.0200    -1.3950     2.3380 h1         1 ADR       0.039700
     22 H52         -0.9380     0.0380     2.7730 h1         1 ADR       0.039700
     23 H61          1.0090     0.0400     4.0460 hn         1 ADR       0.341800
     24 H62          1.9720    -0.1150     2.7620 hn         1 ADR       0.341800
@<TRIPOS>BOND
     1     1     2 1   
     2     1     7 1   
     3     1     9 1   
     4     1    11 1   
     5     2     3 1   
     6     3     4 1   
     7     3    12 1   
     8     3    13 1   
     9     4     5 1   
    10     4     6 1   
    11     4    14 1   
    12     5    15 1   
    13     5    16 1   
    14     6     7 1   
    15     6    17 1   
    16     6    18 1   
    17     7     8 1   
    18     7    19 1   
    19     8    20 1   
    20     9    10 1   
    21     9    21 1   
    22     9    22 1   
    23    10    23 1   
    24    10    24 1   
@<TRIPOS>SUBSTRUCTURE
     1 ADR         1 TEMP              0 ****  ****    0 ROOT
