@<TRIPOS>MOLECULE
ADR
   24    24     1     0     0
SMALL
No Charge or Current Charge


@<TRIPOS>ATOM
      1 C            0.0140     0.2380     0.9060 c6         1 ADR       0.169300
      2 O            1.2650    -0.2250     0.3280 os         1 ADR      -0.457000
      3 C1           1.4780     0.2170    -1.0320 c6         1 ADR       0.157600
      4 C2           0.3450    -0.3220    -1.9630 c6         1 ADR       0.128500
      5 N2           0.4970     0.1370    -3.3640 n8         1 ADR      -0.993200
      6 C3          -1.0420     0.0990    -1.4150 c6         1 ADR      -0.118400
      7 C4          -1.1950    -0.3080     0.0740 c6         1 ADR       0.139300
      8 O4          -2.4490     0.1800     0.5800 oh         1 ADR      -0.714000
      9 C5          -0.0240    -0.2330     2.3990 c3         1 ADR       0.161800
     10 N6           1.1230     0.2270     3.2280 n8         1 ADR      -0.996200
     11 HC           0.0010     1.3380     0.8890 h1         1 ADR       0.065700
     12 H11          1.5020     1.3160    -1.0560 h1         1 ADR       0.055700
     13 H12          2.4550    -0.1520    -1.3760 h1         1 ADR       0.055700
     14 H2           0.3990    -1.4210    -1.9770 h1         1 ADR       0.025700
     15 H21          1.3430    -0.2860    -3.7650 hn         1 ADR       0.396000
     16 H22         -0.2590    -0.2680    -3.9290 hn         1 ADR       0.396000
     17 H31         -1.1630     1.1880    -1.5130 hc         1 ADR       0.055700
     18 H32         -1.8380    -0.3640    -2.0140 hc         1 ADR       0.055700
     19 H4          -1.1760    -1.4070     0.1330 h1         1 ADR       0.036700
     20 HO4         -3.1590    -0.2420     0.0420 ho         1 ADR       0.504000
     21 H51         -0.0400    -1.3320     2.4100 h1         1 ADR       0.039700
     22 H52         -0.9540     0.1210     2.8650 h1         1 ADR       0.039700
     23 H61          1.1260    -0.2920     4.1140 hn         1 ADR       0.397000
     24 H62          1.9870    -0.0790     2.7630 hn         1 ADR       0.397000
@<TRIPOS>BOND
     1     1     2 1   
     2     1     7 1   
     3     1     9 1   
     4     1    11 1   
     5     2     3 1   
     6     3     4 1   
     7     3    12 1   
     8     3    13 1   
     9     4     5 1   
    10     4     6 1   
    11     4    14 1   
    12     5    15 1   
    13     5    16 1   
    14     6     7 1   
    15     6    17 1   
    16     6    18 1   
    17     7     8 1   
    18     7    19 1   
    19     8    20 1   
    20     9    10 1   
    21     9    21 1   
    22     9    22 1   
    23    10    23 1   
    24    10    24 1   
@<TRIPOS>SUBSTRUCTURE
     1 ADR         1 TEMP              0 ****  ****    0 ROOT
