@<TRIPOS>MOLECULE
ADS
   37    39     1     0     0
SMALL
No Charge or Current Charge


@<TRIPOS>ATOM
      1 P            0.0340    -0.4840     6.1100 p5         1 ADS       0.781200
      2 O1P         -0.7800    -1.6380     5.6440 o          1 ADS      -0.385000
      3 S2P          0.4350    -0.4260     8.1710 sh         1 ADS      -0.420200
      4 S3P         -0.7210     1.4370     5.7110 sh         1 ADS      -0.420200
      5 O5           1.5400    -0.3690     5.5260 os         1 ADS      -0.537400
      6 C5           1.8660     0.0480     4.1740 c3         1 ADS       0.206600
      7 C4           0.9570    -0.6380     3.1110 c5         1 ADS       0.099300
      8 O4          -0.3230     0.0260     3.0170 os         1 ADS      -0.462000
      9 C3           1.4790    -0.5300     1.6510 c5         1 ADS       0.107300
     10 O3           2.5740    -1.4030     1.3700 oh         1 ADS      -0.681000
     11 C2           0.2070    -0.9980     0.8830 c5         1 ADS       0.100300
     12 O2           0.1290    -2.4450     0.9140 oh         1 ADS      -0.696000
     13 C1          -0.9200    -0.2940     1.7390 c5         1 ADS       0.285300
     14 N9          -1.5080     0.9400     1.2170 na         1 ADS      -0.313300
     15 C8          -0.9050     1.8430     0.3320 cc         1 ADS       0.409700
     16 N7          -1.7220     2.8760     0.0520 nd         1 ADS      -0.536100
     17 C7          -2.8670     2.5940     0.8020 ca         1 ADS      -0.098600
     18 C6          -4.0670     3.3250     0.9190 ca         1 ADS       0.453900
     19 N6          -4.2810     4.4940     0.2580 nv         1 ADS      -1.057900
     20 N1          -5.0650     2.9000     1.7090 nb         1 ADS      -0.300000
     21 C10         -4.8470     1.7370     2.3700 ca         1 ADS       0.188900
     22 N3          -3.7310     0.9690     2.3140 nb         1 ADS      -0.230000
     23 C9          -2.7490     1.4280     1.5140 ca         1 ADS       0.123500
     24 HSP2         0.4430    -1.7810     8.1810 hs         1 ADS       0.316800
     25 HSP3        -1.0860     0.9600     4.4910 hs         1 ADS       0.316800
     26 H5'1         1.7830     1.1380     4.0700 h1         1 ADS       0.075200
     27 H5'2         2.9080    -0.2180     3.9550 h1         1 ADS       0.075200
     28 H4           0.8030    -1.6900     3.3910 h1         1 ADS       0.077700
     29 H3           1.7320     0.5140     1.4090 h1         1 ADS       0.098700
     30 HO3          2.1290    -2.2560     1.1320 ho         1 ADS       0.521000
     31 H2           0.2120    -0.6320    -0.1550 h1         1 ADS       0.129700
     32 HO2         -0.6380    -2.7220     0.3560 ho         1 ADS       0.510000
     33 H1          -1.7580    -0.9890     1.8840 h2         1 ADS       0.119700
     34 H8           0.0970     1.7040    -0.0560 h5         1 ADS       0.074800
     35 HN61        -3.4650     4.9380    -0.1570 hn         1 ADS       0.509000
     36 HN62        -5.0090     5.1140     0.6030 hn         1 ADS       0.509000
     37 H6          -5.6510     1.3810     3.0130 h5         1 ADS       0.049100
@<TRIPOS>BOND
     1     1     2 2   
     2     1     3 1   
     3     1     4 1   
     4     1     5 1   
     5     3    24 1   
     6     4    25 1   
     7     5     6 1   
     8     6     7 1   
     9     6    26 1   
    10     6    27 1   
    11     7     8 1   
    12     7     9 1   
    13     7    28 1   
    14     8    13 1   
    15     9    10 1   
    16     9    11 1   
    17     9    29 1   
    18    10    30 1   
    19    11    12 1   
    20    11    13 1   
    21    11    31 1   
    22    12    32 1   
    23    13    14 1   
    24    13    33 1   
    25    14    15 1   
    26    14    23 1   
    27    15    16 2   
    28    15    34 1   
    29    16    17 1   
    30    17    18 ar  
    31    17    23 ar  
    32    18    19 1   
    33    18    20 ar  
    34    19    35 1   
    35    19    36 1   
    36    20    21 ar  
    37    21    22 ar  
    38    21    37 1   
    39    22    23 ar  
@<TRIPOS>SUBSTRUCTURE
     1 ADS         1 TEMP              0 ****  ****    0 ROOT
