@<TRIPOS>MOLECULE
ADS
   37    39     1     0     0
SMALL
bcc


@<TRIPOS>ATOM
      1 P            0.7530    -0.1480     6.7240 p5         1 ADS       1.010500
      2 O1P          0.5600    -1.0710     7.8600 o          1 ADS      -0.614300
      3 S2P          2.2500     1.2880     6.9690 sh         1 ADS      -0.420200
      4 S3P         -0.8160     1.1600     6.2700 sh         1 ADS      -0.420200
      5 O5           1.0520    -0.9690     5.3870 os         1 ADS      -0.514200
      6 C5           1.4100    -0.3650     4.1420 c3         1 ADS       0.183400
      7 C4           0.6470    -1.0390     3.0330 c5         1 ADS       0.076100
      8 O4          -0.7470    -0.7640     3.1550 os         1 ADS      -0.415600
      9 C3           1.0270    -0.5230     1.6400 c5         1 ADS       0.084100
     10 O3           2.2000    -1.0550     1.1170 oh         1 ADS      -0.558800
     11 C2          -0.2500    -0.8400     0.8500 c5         1 ADS       0.077100
     12 O2          -0.2630    -2.1670     0.3940 oh         1 ADS      -0.573800
     13 C1          -1.3320    -0.5540     1.8990 c5         1 ADS       0.232800
     14 N9          -1.8180     0.8130     1.8270 na         1 ADS      -0.284000
     15 C8          -1.4260     1.9070     2.5490 cc         1 ADS       0.409700
     16 N7          -2.0600     2.9950     2.2210 nd         1 ADS      -0.536100
     17 C7          -2.9160     2.6040     1.2260 ca         1 ADS      -0.229200
     18 C6          -3.8770     3.2910     0.4600 ca         1 ADS       0.782200
     19 N6          -4.1120     4.5960     0.5970 nv         1 ADS      -0.947500
     20 N1          -4.5670     2.5920    -0.4490 nb         1 ADS      -0.826000
     21 C10         -4.3240     1.2930    -0.5940 ca         1 ADS       0.714900
     22 N3          -3.4560     0.5420     0.0630 nb         1 ADS      -0.756000
     23 C9          -2.7810     1.2500     0.9650 ca         1 ADS       0.451800
     24 HSP2         3.0300     0.4950     7.7180 hs         1 ADS       0.316800
     25 HSP3        -1.5750     0.2330     5.6660 hs         1 ADS       0.316800
     26 H5'1         1.2110     0.7110     4.1450 h1         1 ADS       0.075200
     27 H5'2         2.4810    -0.5070     3.9840 h1         1 ADS       0.075200
     28 H4           0.8170    -2.1230     3.0950 h1         1 ADS       0.077700
     29 H3           1.1600     0.5640     1.6760 h1         1 ADS       0.098700
     30 HO3          2.0220    -1.9530     0.8110 ho         1 ADS       0.422000
     31 H2          -0.3620    -0.2050    -0.0300 h1         1 ADS       0.129700
     32 HO2         -0.3920    -2.7860     1.1230 ho         1 ADS       0.411000
     33 H1          -2.1990    -1.2070     1.7630 h2         1 ADS       0.119700
     34 H8          -0.6750     1.8460     3.3210 h5         1 ADS       0.074800
     35 HN61        -3.6650     5.1280     1.3230 hn         1 ADS       0.453800
     36 HN62        -4.8540     5.0340     0.0780 hn         1 ADS       0.453800
     37 H6          -4.9170     0.7880    -1.3490 h5         1 ADS       0.049100
@<TRIPOS>BOND
     1     1     2 2   
     2     1     3 1   
     3     1     4 1   
     4     1     5 1   
     5     3    24 1   
     6     4    25 1   
     7     5     6 1   
     8     6     7 1   
     9     6    26 1   
    10     6    27 1   
    11     7     8 1   
    12     7     9 1   
    13     7    28 1   
    14     8    13 1   
    15     9    10 1   
    16     9    11 1   
    17     9    29 1   
    18    10    30 1   
    19    11    12 1   
    20    11    13 1   
    21    11    31 1   
    22    12    32 1   
    23    13    14 1   
    24    13    33 1   
    25    14    15 1   
    26    14    23 1   
    27    15    16 2   
    28    15    34 1   
    29    16    17 1   
    30    17    18 ar  
    31    17    23 ar  
    32    18    19 1   
    33    18    20 ar  
    34    19    35 1   
    35    19    36 1   
    36    20    21 ar  
    37    21    22 ar  
    38    21    37 1   
    39    22    23 ar  
@<TRIPOS>SUBSTRUCTURE
     1 ADS         1 TEMP              0 ****  ****    0 ROOT
