@<TRIPOS>MOLECULE
ADT
   37    38     1     0     0
SMALL
No Charge or Current Charge


@<TRIPOS>ATOM
      1 N1          -0.0090    -0.4820    -1.4850 n          1 ADT      -0.319000
      2 C2          -0.2900     0.8940    -1.6500 c          1 ADT       0.622000
      3 O2          -0.6370     1.6460    -0.7550 o          1 ADT      -0.556000
      4 N3          -0.1180     1.3850    -2.9060 ns         1 ADT      -0.467500
      5 C4           0.3000     0.7340    -4.0210 c          1 ADT       0.587200
      6 O4           0.4050     1.3180    -5.0870 o          1 ADT      -0.526000
      7 C5           0.6030    -0.6990    -3.8080 cc         1 ADT      -0.259400
      8 C5M          1.0810    -1.4650    -5.0200 c3         1 ADT      -0.020900
      9 C6           0.4410    -1.2540    -2.5570 cd         1 ADT      -0.004400
     10 C1          -0.2300    -1.1550    -0.1760 c5         1 ADT       0.349700
     11 O1          -1.4170    -0.7060     0.5080 os         1 ADT      -0.434000
     12 C10         -1.1030    -0.6690     1.9160 c5         1 ADT       0.154300
     13 C11         -2.1820     0.1300     2.7000 c3         1 ADT       0.160600
     14 O5          -3.4260    -0.5970     2.7750 oh         1 ADT      -0.716000
     15 C3           0.3120    -0.0250     1.8890 c5         1 ADT       0.078700
     16 N2           1.0060    -0.4350     3.1240 ns         1 ADT      -0.507900
     17 C8           1.0860     0.4650     4.1680 c          1 ADT       0.605100
     18 O8           0.6020     1.5870     4.1250 o          1 ADT      -0.594100
     19 C9           1.8280    -0.0540     5.3910 c3         1 ADT      -0.181100
     20 C7           0.9890    -0.8350     0.7470 c5         1 ADT      -0.126400
     21 HN3         -0.3210     2.3640    -3.0200 hn         1 ADT       0.343500
     22 HM51         0.3270    -1.4510    -5.8170 hc         1 ADT       0.047700
     23 HM52         2.0060    -1.0330    -5.4200 hc         1 ADT       0.047700
     24 HM53         1.2840    -2.5140    -4.7740 hc         1 ADT       0.047700
     25 H6           0.6390    -2.2970    -2.3200 h4         1 ADT       0.203000
     26 H1          -0.2980    -2.2340    -0.3640 h2         1 ADT       0.060700
     27 H4          -1.0650    -1.7000     2.2980 h1         1 ADT       0.053700
     28 H5'1        -1.8040     0.3240     3.7120 h1         1 ADT       0.043200
     29 H5'2        -2.3280     1.1020     2.2090 h1         1 ADT       0.043200
     30 HO5         -4.0790    -0.0060     3.2200 ho         1 ADT       0.507000
     31 H3           0.2840     1.0570     1.6910 h1         1 ADT       0.124700
     32 H7           1.4450    -1.3390     3.2580 hn         1 ADT       0.308500
     33 H9'1         2.8280    -0.3830     5.0880 hc         1 ADT       0.061700
     34 H9'2         1.8730     0.6830     6.2020 hc         1 ADT       0.061700
     35 H9'3         1.3640    -0.9900     5.7200 hc         1 ADT       0.061700
     36 H2'1         1.7810    -0.2640     0.2500 hc         1 ADT       0.069200
     37 H2'2         1.4400    -1.7720     1.0930 hc         1 ADT       0.069200
@<TRIPOS>BOND
     1     1     2 1   
     2     1     9 1   
     3     1    10 1   
     4     2     3 2   
     5     2     4 1   
     6     4     5 1   
     7     4    21 1   
     8     5     6 2   
     9     5     7 1   
    10     7     8 1   
    11     7     9 2   
    12     8    22 1   
    13     8    23 1   
    14     8    24 1   
    15     9    25 1   
    16    10    11 1   
    17    10    20 1   
    18    10    26 1   
    19    11    12 1   
    20    12    13 1   
    21    12    15 1   
    22    12    27 1   
    23    13    14 1   
    24    13    28 1   
    25    13    29 1   
    26    14    30 1   
    27    15    16 1   
    28    15    20 1   
    29    15    31 1   
    30    16    17 1   
    31    16    32 1   
    32    17    18 2   
    33    17    19 1   
    34    19    33 1   
    35    19    34 1   
    36    19    35 1   
    37    20    36 1   
    38    20    37 1   
@<TRIPOS>SUBSTRUCTURE
     1 ADT         1 TEMP              0 ****  ****    0 ROOT
