@<TRIPOS>MOLECULE
ADT
   37    38     1     0     0
SMALL
abcg2


@<TRIPOS>ATOM
      1 N1           0.2190    -0.5170    -1.4290 n          1 ADT      -0.319000
      2 C2           0.0820     0.8510    -1.4670 c          1 ADT       0.622000
      3 O2          -0.0230     1.5450    -0.4770 o          1 ADT      -0.556000
      4 N3           0.0790     1.3870    -2.7290 ns         1 ADT      -0.467500
      5 C4           0.1900     0.7250    -3.9380 c          1 ADT       0.587200
      6 O4           0.1710     1.3430    -4.9870 o          1 ADT      -0.526000
      7 C5           0.3210    -0.7130    -3.8210 cc         1 ADT      -0.259400
      8 C5M          0.4470    -1.5310    -5.0630 c3         1 ADT      -0.020900
      9 C6           0.3210    -1.2450    -2.5870 cd         1 ADT      -0.004400
     10 C1           0.1920    -1.2170    -0.1460 c5         1 ADT       0.349700
     11 O1          -1.0710    -1.0680     0.4340 os         1 ADT      -0.434000
     12 C10         -0.9710    -0.7640     1.8150 c5         1 ADT       0.154300
     13 C11         -2.0880     0.1650     2.2210 c3         1 ADT       0.160600
     14 O5          -3.3180    -0.5090     2.1050 oh         1 ADT      -0.716000
     15 C3           0.4200    -0.1430     2.0130 c5         1 ADT       0.078700
     16 N2           0.9650    -0.4070     3.3180 ns         1 ADT      -0.507900
     17 C8           1.0820     0.5110     4.2970 c          1 ADT       0.605100
     18 O8           0.7480     1.6800     4.1650 o          1 ADT      -0.594100
     19 C9           1.6580    -0.0070     5.5910 c3         1 ADT      -0.181100
     20 C7           1.2340    -0.7710     0.8850 c5         1 ADT      -0.126400
     21 HN3         -0.0130     2.3940    -2.7680 hn         1 ADT       0.343500
     22 HM51        -0.4160    -1.3990    -5.7170 hc         1 ADT       0.047700
     23 HM52         1.3320    -1.2490    -5.6360 hc         1 ADT       0.047700
     24 HM53         0.5280    -2.5900    -4.8250 hc         1 ADT       0.047700
     25 H6           0.4090    -2.3140    -2.4460 h4         1 ADT       0.203000
     26 H1           0.3650    -2.2640    -0.4070 h2         1 ADT       0.060700
     27 H4          -1.0330    -1.6910     2.4040 h1         1 ADT       0.053700
     28 H5'1        -1.8970     0.4910     3.2520 h1         1 ADT       0.043200
     29 H5'2        -2.0470     1.0590     1.5860 h1         1 ADT       0.043200
     30 HO5         -4.0190     0.1100     2.3290 ho         1 ADT       0.507000
     31 H3           0.3670     0.9360     1.8870 h1         1 ADT       0.124700
     32 H7           1.2380    -1.3560     3.5220 hn         1 ADT       0.308500
     33 H9'1         2.5090     0.6090     5.8810 hc         1 ADT       0.061700
     34 H9'2         0.9100     0.0830     6.3790 hc         1 ADT       0.061700
     35 H9'3         1.9830    -1.0450     5.5430 hc         1 ADT       0.061700
     36 H2'1         1.9860    -0.1010     0.4740 hc         1 ADT       0.069200
     37 H2'2         1.7570    -1.6580     1.2480 hc         1 ADT       0.069200
@<TRIPOS>BOND
     1     1     2 1   
     2     1     9 1   
     3     1    10 1   
     4     2     3 2   
     5     2     4 1   
     6     4     5 1   
     7     4    21 1   
     8     5     6 2   
     9     5     7 1   
    10     7     8 1   
    11     7     9 2   
    12     8    22 1   
    13     8    23 1   
    14     8    24 1   
    15     9    25 1   
    16    10    11 1   
    17    10    20 1   
    18    10    26 1   
    19    11    12 1   
    20    12    13 1   
    21    12    15 1   
    22    12    27 1   
    23    13    14 1   
    24    13    28 1   
    25    13    29 1   
    26    14    30 1   
    27    15    16 1   
    28    15    20 1   
    29    15    31 1   
    30    16    17 1   
    31    16    32 1   
    32    17    18 2   
    33    17    19 1   
    34    19    33 1   
    35    19    34 1   
    36    19    35 1   
    37    20    36 1   
    38    20    37 1   
@<TRIPOS>SUBSTRUCTURE
     1 ADT         1 TEMP              0 ****  ****    0 ROOT
