@<TRIPOS>MOLECULE
ADU
   35    36     1     0     0
SMALL
bcc


@<TRIPOS>ATOM
      1 N1          -1.1420    -2.0140     1.1640 n          1 ADU      -0.381000
      2 C2          -2.1610    -2.1690     2.0860 c          1 ADU       0.838500
      3 O2          -3.3250    -1.9350     1.8410 o          1 ADU      -0.623500
      4 N3          -1.7510    -2.6100     3.3160 ns         1 ADU      -0.603500
      5 C4          -0.4640    -2.9150     3.7330 c          1 ADU       0.732700
      6 O4          -0.2550    -3.2980     4.8690 o          1 ADU      -0.600500
      7 C5           0.5300    -2.7320     2.7040 cc         1 ADU      -0.331200
      8 C6           0.1540    -2.3020     1.4910 cd         1 ADU       0.058600
      9 C1          -1.4600    -1.5520    -0.1780 c5         1 ADU       0.310500
     10 O3          -0.8910    -2.4200    -1.1100 os         1 ADU      -0.392600
     11 C10         -0.3630    -1.6980    -2.2290 c5         1 ADU       0.135100
     12 C11          1.1370    -1.8730    -2.3210 c3         1 ADU       0.127400
     13 O5           1.4250    -3.2430    -2.4260 oh         1 ADU      -0.576800
     14 C3          -0.7490    -0.2280    -2.0200 c5         1 ADU       0.050700
     15 N2          -1.9940     0.1280    -2.6530 ns         1 ADU      -0.569900
     16 C8          -2.0920     0.2660    -3.9890 c          1 ADU       0.665100
     17 O8          -1.1690    -0.0130    -4.7420 o          1 ADU      -0.606100
     18 C9          -3.4150     0.7830    -4.4930 c3         1 ADU      -0.178100
     19 C7          -0.8990    -0.1670    -0.4930 c5         1 ADU       0.083100
     20 O1          -1.7660     0.8030     0.0050 oh         1 ADU      -0.570800
     21 HN3         -2.4900    -2.7250     3.9990 hn         1 ADU       0.343500
     22 H5           1.5660    -2.9470     2.9160 ha         1 ADU       0.172000
     23 H6           0.8820    -2.1720     0.7030 h4         1 ADU       0.158000
     24 H1          -2.5500    -1.5410    -0.2530 h2         1 ADU       0.118700
     25 H4          -0.8230    -2.1020    -3.1340 h1         1 ADU       0.110700
     26 H5'1         1.6250    -1.4180    -1.4470 h1         1 ADU       0.023700
     27 H5'2         1.4760    -1.3080    -3.2000 h1         1 ADU       0.023700
     28 HO5          2.3800    -3.3490    -2.4480 ho         1 ADU       0.407000
     29 H3           0.0510     0.4360    -2.3620 h1         1 ADU       0.074700
     30 H7          -2.7250     0.5090    -2.0740 hn         1 ADU       0.334500
     31 H9'1        -3.2600     1.7360    -4.9990 hc         1 ADU       0.064700
     32 H9'2        -3.8220     0.0880    -5.2280 hc         1 ADU       0.064700
     33 H9'3        -4.1530     0.9260    -3.7060 hc         1 ADU       0.064700
     34 H2           0.1060    -0.0630    -0.0640 h1         1 ADU       0.051700
     35 HO2         -1.3210     1.6570    -0.0050 ho         1 ADU       0.419000
@<TRIPOS>BOND
     1     1     2 1   
     2     1     8 1   
     3     1     9 1   
     4     2     3 2   
     5     2     4 1   
     6     4     5 1   
     7     4    21 1   
     8     5     6 2   
     9     5     7 1   
    10     7     8 2   
    11     7    22 1   
    12     8    23 1   
    13     9    10 1   
    14     9    19 1   
    15     9    24 1   
    16    10    11 1   
    17    11    12 1   
    18    11    14 1   
    19    11    25 1   
    20    12    13 1   
    21    12    26 1   
    22    12    27 1   
    23    13    28 1   
    24    14    15 1   
    25    14    19 1   
    26    14    29 1   
    27    15    16 1   
    28    15    30 1   
    29    16    17 2   
    30    16    18 1   
    31    18    31 1   
    32    18    32 1   
    33    18    33 1   
    34    19    20 1   
    35    19    34 1   
    36    20    35 1   
@<TRIPOS>SUBSTRUCTURE
     1 ADU         1 TEMP              0 ****  ****    0 ROOT
