@<TRIPOS>MOLECULE
ADU
   35    36     1     0     0
SMALL
No Charge or Current Charge


@<TRIPOS>ATOM
      1 N1          -1.0580    -2.1050     1.2590 n          1 ADU      -0.314000
      2 C2          -2.2130    -2.2570     2.0510 c          1 ADU       0.629000
      3 O2          -3.3470    -2.1320     1.6190 o          1 ADU      -0.548000
      4 N3          -2.0050    -2.5670     3.3600 ns         1 ADU      -0.469500
      5 C4          -0.8230    -2.7560     4.0000 c          1 ADU       0.590200
      6 O4          -0.7620    -3.0320     5.1840 o          1 ADU      -0.525000
      7 C5           0.3410    -2.5990     3.1320 cc         1 ADU      -0.381200
      8 C6           0.2170    -2.2850     1.7990 cd         1 ADU       0.008600
      9 C1          -1.2320    -1.7380    -0.1710 c5         1 ADU       0.333700
     10 O3          -0.2700    -2.4000    -1.0020 os         1 ADU      -0.439000
     11 C10         -0.2430    -1.6840    -2.2600 c5         1 ADU       0.158300
     12 C11          1.1460    -1.8670    -2.9360 c3         1 ADU       0.150600
     13 O5           1.3240    -3.2110    -3.4200 oh         1 ADU      -0.699000
     14 C3          -0.5870    -0.1880    -1.8870 c5         1 ADU       0.050700
     15 N2          -1.8920     0.1170    -2.5180 ns         1 ADU      -0.502900
     16 C8          -1.9320     0.4090    -3.8660 c          1 ADU       0.598100
     17 O8          -0.9460     0.3760    -4.5880 o          1 ADU      -0.606100
     18 C9          -3.3120     0.7770    -4.3910 c3         1 ADU      -0.178100
     19 C7          -0.8590    -0.2280    -0.3370 c5         1 ADU       0.106300
     20 O1          -1.8860     0.6830     0.1110 oh         1 ADU      -0.693000
     21 HN3         -2.8330    -2.6720     3.9220 hn         1 ADU       0.343500
     22 H5           1.3060    -2.7470     3.6050 ha         1 ADU       0.222000
     23 H6           1.0440    -2.1570     1.1030 h4         1 ADU       0.208000
     24 H1          -2.2580    -1.9550    -0.4990 h2         1 ADU       0.118700
     25 H4          -1.0060    -2.1130    -2.9250 h1         1 ADU       0.110700
     26 H5'1         1.9300    -1.6100    -2.2100 h1         1 ADU       0.023700
     27 H5'2         1.2250    -1.1580    -3.7710 h1         1 ADU       0.023700
     28 HO5          2.2380    -3.2670    -3.7860 ho         1 ADU       0.506000
     29 H3           0.2060     0.5240    -2.1580 h1         1 ADU       0.074700
     30 H7          -2.7520     0.2250    -1.9910 hn         1 ADU       0.334500
     31 H9'1        -3.3110     0.9990    -5.4640 hc         1 ADU       0.064700
     32 H9'2        -4.0140    -0.0280    -4.1440 hc         1 ADU       0.064700
     33 H9'3        -3.7050     1.6160    -3.8040 hc         1 ADU       0.064700
     34 H2           0.0780    -0.0240     0.1990 h1         1 ADU       0.051700
     35 HO2         -1.5200     1.5950     0.0390 ho         1 ADU       0.518000
@<TRIPOS>BOND
     1     1     2 1   
     2     1     8 1   
     3     1     9 1   
     4     2     3 2   
     5     2     4 1   
     6     4     5 1   
     7     4    21 1   
     8     5     6 2   
     9     5     7 1   
    10     7     8 2   
    11     7    22 1   
    12     8    23 1   
    13     9    10 1   
    14     9    19 1   
    15     9    24 1   
    16    10    11 1   
    17    11    12 1   
    18    11    14 1   
    19    11    25 1   
    20    12    13 1   
    21    12    26 1   
    22    12    27 1   
    23    13    28 1   
    24    14    15 1   
    25    14    19 1   
    26    14    29 1   
    27    15    16 1   
    28    15    30 1   
    29    16    17 2   
    30    16    18 1   
    31    18    31 1   
    32    18    32 1   
    33    18    33 1   
    34    19    20 1   
    35    19    34 1   
    36    20    35 1   
@<TRIPOS>SUBSTRUCTURE
     1 ADU         1 TEMP              0 ****  ****    0 ROOT
