@<TRIPOS>MOLECULE
ADV
   59    62     1     0     0
SMALL
abcg2


@<TRIPOS>ATOM
      1 PA          -0.8600     0.7080    -0.1100 p5         1 ADV       1.425400
      2 O5          -1.6530    -0.5090     0.7090 os         1 ADV      -0.576400
      3 C5          -2.1820    -0.1750     1.9690 c3         1 ADV       0.228600
      4 C4          -1.9040    -1.2780     2.9650 c5         1 ADV       0.147300
      5 O4          -0.4990    -1.4750     3.1310 os         1 ADV      -0.396000
      6 C3          -2.4390    -0.9480     4.3580 c5         1 ADV       0.082300
      7 O3          -3.7440    -1.4380     4.5030 oh         1 ADV      -0.711000
      8 C2          -1.4190    -1.6320     5.2730 c5         1 ADV       0.090300
      9 O2          -1.6550    -3.0120     5.3450 oh         1 ADV      -0.712000
     10 C1          -0.1360    -1.4350     4.4710 c5         1 ADV       0.323300
     11 N9           0.4920    -0.1430     4.7630 na         1 ADV      -0.318300
     12 C8           0.8070     0.8550     3.8780 cc         1 ADV       0.471700
     13 N7           1.4450     1.8470     4.4340 nd         1 ADV      -0.570100
     14 C7           1.5740     1.4820     5.7470 ca         1 ADV      -0.076600
     15 C6           2.1770     2.1000     6.8570 ca         1 ADV       0.427900
     16 N6           2.7490     3.3060     6.7890 nv         1 ADV      -1.072900
     17 N1           2.1570     1.4510     8.0260 nb         1 ADV      -0.325000
     18 C10          1.5710     0.2580     8.0930 ca         1 ADV       0.141900
     19 N3           0.9730    -0.4190     7.1290 nb         1 ADV      -0.219000
     20 C9           0.9990     0.2410     5.9710 ca         1 ADV       0.084500
     21 CX          -0.4950    -0.2310    -1.6290 c3         1 ADV      -0.778400
     22 PB           0.8210     0.5710    -2.6110 p5         1 ADV       1.428400
     23 O1B          2.1870     0.1260    -2.1640 o          1 ADV      -0.835000
     24 OR5          0.4830    -0.1810    -4.0600 os         1 ADV      -0.582400
     25 CR5          1.3270     0.1220    -5.1470 c3         1 ADV       0.226600
     26 CR4          0.7500    -0.4660    -6.4120 c5         1 ADV       0.172300
     27 OR4         -0.4850     0.1570    -6.7320 os         1 ADV      -0.440000
     28 CR3          1.6330    -0.2210    -7.6360 c5         1 ADV       0.132300
     29 OR3          2.6660    -1.1580    -7.6930 oh         1 ADV      -0.676000
     30 CR2          0.6140    -0.2750    -8.7690 c5         1 ADV       0.101300
     31 OR2          0.3320    -1.6210    -9.0450 oh         1 ADV      -0.693000
     32 CR1         -0.5690     0.4430    -8.1170 c5         1 ADV       0.351300
     33 OR1         -1.7590    -0.0170    -8.6500 oh         1 ADV      -0.740000
     34 O2A         -1.8470     1.8150    -0.3610 o          1 ADV      -0.836000
     35 O2B          0.5380     2.0410    -2.7610 o          1 ADV      -0.835000
     36 O1A          0.4170     1.0210     0.6310 o          1 ADV      -0.836000
     37 H5'1        -3.2690    -0.0430     1.9090 h1         1 ADV       0.018200
     38 H5'2        -1.7750     0.7650     2.3590 h1         1 ADV       0.018200
     39 H'4         -2.3440    -2.2170     2.6100 h1         1 ADV       0.079700
     40 H'3         -2.4010     0.1370     4.5280 h1         1 ADV       0.060700
     41 HO'3        -4.1680    -0.9820     5.2370 ho         1 ADV       0.496000
     42 H'2         -1.3690    -1.1760     6.2670 h1         1 ADV       0.068700
     43 HO'2        -2.6110    -3.1440     5.3640 ho         1 ADV       0.512000
     44 H'1          0.6000    -2.2160     4.6810 h2         1 ADV       0.102700
     45 H8           0.5600     0.7990     2.8240 h5         1 ADV       0.168800
     46 H61          3.2760     3.6520     7.5730 hn         1 ADV       0.494500
     47 H62          2.8840     3.7570     5.9010 hn         1 ADV       0.494500
     48 H2           1.5920    -0.2170     9.0690 h5         1 ADV       0.022100
     49 HX1         -0.1850    -1.2470    -1.3760 hc         1 ADV       0.068700
     50 HX2         -1.4100    -0.3040    -2.2220 hc         1 ADV       0.068700
     51 H5R1         1.4390     1.2070    -5.2770 h1         1 ADV       0.022700
     52 H5R2         2.3310    -0.2930    -5.0000 h1         1 ADV       0.022700
     53 HR4          0.6050    -1.5470    -6.2770 h1         1 ADV       0.080700
     54 HR3          2.0250     0.8060    -7.5880 h1         1 ADV       0.038700
     55 HOR3         3.3240    -0.8520    -8.3240 ho         1 ADV       0.485000
     56 HR2          0.9500     0.2620    -9.6660 h1         1 ADV       0.020700
     57 HOR2        -0.4700    -1.6580    -9.5770 ho         1 ADV       0.505000
     58 HR1         -0.4740     1.5290    -8.2530 h2         1 ADV       0.028700
     59 HOR1        -2.4560     0.6270    -8.4920 ho         1 ADV       0.519000
@<TRIPOS>BOND
     1     1     2 1   
     2     1    21 1   
     3     1    34 1   
     4     1    36 1   
     5     2     3 1   
     6     3     4 1   
     7     3    37 1   
     8     3    38 1   
     9     4     5 1   
    10     4     6 1   
    11     4    39 1   
    12     5    10 1   
    13     6     7 1   
    14     6     8 1   
    15     6    40 1   
    16     7    41 1   
    17     8     9 1   
    18     8    10 1   
    19     8    42 1   
    20     9    43 1   
    21    10    11 1   
    22    10    44 1   
    23    11    12 1   
    24    11    20 1   
    25    12    13 2   
    26    12    45 1   
    27    13    14 1   
    28    14    15 ar  
    29    14    20 ar  
    30    15    16 1   
    31    15    17 ar  
    32    16    46 1   
    33    16    47 1   
    34    17    18 ar  
    35    18    19 ar  
    36    18    48 1   
    37    19    20 ar  
    38    21    22 1   
    39    21    49 1   
    40    21    50 1   
    41    22    23 1   
    42    22    24 1   
    43    22    35 1   
    44    24    25 1   
    45    25    26 1   
    46    25    51 1   
    47    25    52 1   
    48    26    27 1   
    49    26    28 1   
    50    26    53 1   
    51    27    32 1   
    52    28    29 1   
    53    28    30 1   
    54    28    54 1   
    55    29    55 1   
    56    30    31 1   
    57    30    32 1   
    58    30    56 1   
    59    31    57 1   
    60    32    33 1   
    61    32    58 1   
    62    33    59 1   
@<TRIPOS>SUBSTRUCTURE
     1 ADV         1 TEMP              0 ****  ****    0 ROOT
