@<TRIPOS>MOLECULE
ADV
   59    62     1     0     0
SMALL
No Charge or Current Charge


@<TRIPOS>ATOM
      1 PA           1.2400    -1.7820     0.1610 p5         1 ADV       1.425400
      2 O5          -0.2760    -1.2330     0.1660 os         1 ADV      -0.576400
      3 C5          -0.7620    -0.4500     1.2650 c3         1 ADV       0.228600
      4 C4          -1.6940    -1.3200     2.1670 c5         1 ADV       0.147300
      5 O4          -0.9430    -2.1980     3.0400 os         1 ADV      -0.396000
      6 C3          -2.6200    -0.4730     3.1220 c5         1 ADV       0.082300
      7 O3          -4.0310    -0.7060     2.9030 oh         1 ADV      -0.711000
      8 C2          -2.2200    -0.9490     4.5630 c5         1 ADV       0.090300
      9 O2          -3.1930    -1.9110     4.9900 oh         1 ADV      -0.712000
     10 C1          -0.8040    -1.5750     4.3300 c5         1 ADV       0.323300
     11 N9           0.3940    -0.7200     4.3400 na         1 ADV      -0.318300
     12 C8           1.6940    -1.2370     4.3960 cc         1 ADV       0.471700
     13 N7           2.6110    -0.2560     4.5250 nd         1 ADV      -0.570100
     14 C7           1.8400     0.9090     4.5370 ca         1 ADV      -0.076600
     15 C6           2.2570     2.2540     4.6430 ca         1 ADV       0.427900
     16 N6           3.5630     2.6170     4.7590 nv         1 ADV      -1.072900
     17 N1           1.3690     3.2590     4.6440 nb         1 ADV      -0.325000
     18 C10          0.0680     2.9000     4.5320 ca         1 ADV       0.141900
     19 N3          -0.4180     1.6410     4.4250 nb         1 ADV      -0.219000
     20 C9           0.4950     0.6480     4.4310 ca         1 ADV       0.084500
     21 CX           1.1560    -2.7390    -1.3260 c3         1 ADV      -0.778400
     22 PB           1.5600    -1.6380    -2.6460 p5         1 ADV       1.428400
     23 O1B          1.2210    -2.3770    -3.8970 o          1 ADV      -0.835000
     24 OR5          0.5760    -0.3870    -2.3990 os         1 ADV      -0.582400
     25 CR5          0.7010     0.8250    -3.1660 c3         1 ADV       0.226600
     26 CR4          0.2810     0.6280    -4.6540 c5         1 ADV       0.172300
     27 OR4         -1.1320     0.3400    -4.7600 os         1 ADV      -0.440000
     28 CR3          0.4030     1.9160    -5.5180 c5         1 ADV       0.132300
     29 OR3          1.7440     2.2620    -5.8750 oh         1 ADV      -0.676000
     30 CR2         -0.3950     1.4610    -6.7740 c5         1 ADV       0.101300
     31 OR2          0.4230     0.6360    -7.6230 oh         1 ADV      -0.693000
     32 CR1         -1.5420     0.6010    -6.1110 c5         1 ADV       0.351300
     33 OR1         -1.6840    -0.6420    -6.7860 oh         1 ADV      -0.740000
     34 O2A          2.2490    -0.6870     0.1560 o          1 ADV      -0.836000
     35 O2B          3.0080    -1.2850    -2.6120 o          1 ADV      -0.835000
     36 O1A          1.4630    -2.7640     1.2610 o          1 ADV      -0.836000
     37 H5'1        -1.3460     0.3930     0.8730 h1         1 ADV       0.018200
     38 H5'2         0.0630    -0.0260     1.8490 h1         1 ADV       0.018200
     39 H'4         -2.3040    -1.9450     1.5020 h1         1 ADV       0.079700
     40 H'3         -2.3990     0.5980     3.0080 h1         1 ADV       0.060700
     41 HO'3        -4.3030    -0.1800     2.1130 ho         1 ADV       0.496000
     42 H'2         -2.1820    -0.1140     5.2760 h1         1 ADV       0.068700
     43 HO'2        -3.9000    -1.7700     4.3010 ho         1 ADV       0.512000
     44 H'1         -0.6150    -2.3410     5.0930 h2         1 ADV       0.102700
     45 H8           1.8960    -2.3030     4.3470 h5         1 ADV       0.168800
     46 H61          3.7720     3.5470     5.1120 hn         1 ADV       0.494500
     47 H62          4.2330     1.8820     4.9720 hn         1 ADV       0.494500
     48 H2          -0.6630     3.7070     4.5290 h5         1 ADV       0.022100
     49 HX1          1.8860    -3.5470    -1.2920 hc         1 ADV       0.068700
     50 HX2          0.1510    -3.1390    -1.4640 hc         1 ADV       0.068700
     51 H5R1         0.0730     1.6110    -2.7250 h1         1 ADV       0.022700
     52 H5R2         1.7380     1.1850    -3.1380 h1         1 ADV       0.022700
     53 HR4          0.8570    -0.1910    -5.1020 h1         1 ADV       0.080700
     54 HR3         -0.0930     2.7620    -5.0210 h1         1 ADV       0.038700
     55 HOR3         1.8810     1.7870    -6.7320 ho         1 ADV       0.485000
     56 HR2         -0.7980     2.3160    -7.3340 h1         1 ADV       0.020700
     57 HOR2        -0.1160    -0.1970    -7.6790 ho         1 ADV       0.505000
     58 HR1         -2.4950     1.1460    -6.1060 h2         1 ADV       0.028700
     59 HOR1        -2.2180    -1.1950    -6.1720 ho         1 ADV       0.519000
@<TRIPOS>BOND
     1     1     2 1   
     2     1    21 1   
     3     1    34 1   
     4     1    36 1   
     5     2     3 1   
     6     3     4 1   
     7     3    37 1   
     8     3    38 1   
     9     4     5 1   
    10     4     6 1   
    11     4    39 1   
    12     5    10 1   
    13     6     7 1   
    14     6     8 1   
    15     6    40 1   
    16     7    41 1   
    17     8     9 1   
    18     8    10 1   
    19     8    42 1   
    20     9    43 1   
    21    10    11 1   
    22    10    44 1   
    23    11    12 1   
    24    11    20 1   
    25    12    13 2   
    26    12    45 1   
    27    13    14 1   
    28    14    15 ar  
    29    14    20 ar  
    30    15    16 1   
    31    15    17 ar  
    32    16    46 1   
    33    16    47 1   
    34    17    18 ar  
    35    18    19 ar  
    36    18    48 1   
    37    19    20 ar  
    38    21    22 1   
    39    21    49 1   
    40    21    50 1   
    41    22    23 1   
    42    22    24 1   
    43    22    35 1   
    44    24    25 1   
    45    25    26 1   
    46    25    51 1   
    47    25    52 1   
    48    26    27 1   
    49    26    28 1   
    50    26    53 1   
    51    27    32 1   
    52    28    29 1   
    53    28    30 1   
    54    28    54 1   
    55    29    55 1   
    56    30    31 1   
    57    30    32 1   
    58    30    56 1   
    59    31    57 1   
    60    32    33 1   
    61    32    58 1   
    62    33    59 1   
@<TRIPOS>SUBSTRUCTURE
     1 ADV         1 TEMP              0 ****  ****    0 ROOT
