@<TRIPOS>MOLECULE
ADY
   30    32     1     0     0
SMALL
bcc


@<TRIPOS>ATOM
      1 H5          -3.9440     2.1720    -1.2320 oh         1 ADY      -0.306000
      2 H5          -3.9890     1.2000    -0.2210 c3         1 ADY       0.000000
      3 H4          -3.0370     0.0840    -0.5930 c5         1 ADY      -0.024000
      4 H4          -1.6940     0.5460    -0.6090 os         1 ADY      -0.248000
      5 H3          -3.0410    -1.0470     0.4180 c          1 ADY       0.170000
      6 H3          -3.9710    -1.7520     0.6960 o          1 ADY      -0.230000
      7 H2          -1.6370    -1.1390     0.9860 c5         1 ADY      -0.059000
      8 H2          -1.1850    -2.4220     1.2470 oh         1 ADY      -0.278000
      9 H1          -0.8480    -0.4770    -0.1380 c5         1 ADY       0.170000
     10 H9           0.3980     0.1020     0.2530 na         1 ADY      -0.168000
     11 H8           0.6070     1.0660     1.2070 cc         1 ADY      -0.041000
     12 H7           1.8490     1.4290     1.3050 n2         1 ADY      -0.121000
     13 H7           2.5040     0.6720     0.3660 ca         1 ADY      -0.241000
     14 H6           3.8530     0.5910    -0.0280 ca         1 ADY       0.261000
     15 H6           4.8140     1.3240     0.5340 nv         1 ADY      -0.351000
     16 H1           4.1680    -0.2660    -1.0060 nb         1 ADY      -0.301000
     17 H10          3.2080    -0.9990    -1.5610 ca         1 ADY       0.051000
     18 H3           1.9160    -1.0120    -1.2770 nb         1 ADY      -0.219000
     19 H9           1.6200    -0.1560    -0.3040 ca         1 ADY       0.084000
     20 HO5         -4.4890     2.9150    -0.9580 ha         1 ADY       0.210000
     21 H5'1        -4.9870     0.7590    -0.1130 ha         1 ADY       0.072500
     22 H5'2        -3.7040     1.6070     0.7580 ha         1 ADY       0.072500
     23 H4          -3.3170    -0.3270    -1.5740 ha         1 ADY       0.137000
     24 H2          -1.6180    -0.4850     1.8740 ha         1 ADY       0.104000
     25 HO2         -1.5780    -2.7350     2.0680 ha         1 ADY       0.225000
     26 H1          -0.6260    -1.2170    -0.9170 ha         1 ADY       0.154000
     27 H8          -0.2030     1.4680     1.7980 ha         1 ADY       0.195000
     28 HN61         5.7590     1.2650     0.1960 ha         1 ADY       0.247500
     29 HN62         4.6020     2.0060     1.2400 ha         1 ADY       0.247500
     30 H3           3.5310    -1.6710    -2.3490 ha         1 ADY       0.185000
@<TRIPOS>BOND
     1     1     2 1   
     2     1    20 1   
     3     2     3 1   
     4     2    21 1   
     5     2    22 1   
     6     3     4 1   
     7     3     5 1   
     8     3    23 1   
     9     4     9 1   
    10     5     6 2   
    11     5     7 1   
    12     7     8 1   
    13     7     9 1   
    14     7    24 1   
    15     8    25 1   
    16     9    10 1   
    17     9    26 1   
    18    10    11 1   
    19    10    19 1   
    20    11    12 2   
    21    11    27 1   
    22    12    13 1   
    23    13    14 ar  
    24    13    19 ar  
    25    14    15 1   
    26    14    16 ar  
    27    15    28 1   
    28    15    29 1   
    29    16    17 ar  
    30    17    18 ar  
    31    17    30 1   
    32    18    19 ar  
@<TRIPOS>SUBSTRUCTURE
     1 ADY         1 TEMP              0 ****  ****    0 ROOT
