@<TRIPOS>MOLECULE
ADY
   30    32     1     0     0
SMALL
No Charge or Current Charge


@<TRIPOS>ATOM
      1 O5          -3.6970     1.6380    -2.1650 oh         1 ADY      -0.701000
      2 C5          -3.8320     1.1460    -0.8200 c3         1 ADY       0.173600
      3 C4          -2.8940    -0.0630    -0.5780 c5         1 ADY       0.060300
      4 O4          -1.5030     0.3540    -0.5040 os         1 ADY      -0.438000
      5 C3          -3.1910    -0.7820     0.7530 c          1 ADY       0.509100
      6 O3          -4.2730    -1.1900     1.1650 o          1 ADY      -0.469100
      7 C2          -1.8130    -0.9090     1.4560 c5         1 ADY       0.025300
      8 O2          -1.6290    -2.1970     2.1010 oh         1 ADY      -0.673000
      9 C1          -0.8210    -0.6500     0.2750 c5         1 ADY       0.314300
     10 N9           0.5310    -0.1910     0.5930 na         1 ADY      -0.280300
     11 C8           1.0210     0.1270     1.8650 cc         1 ADY       0.414700
     12 N7           2.3160     0.4960     1.8180 nd         1 ADY      -0.548100
     13 C7           2.6300     0.3890     0.4590 ca         1 ADY      -0.101600
     14 C6           3.8480     0.6420    -0.2030 ca         1 ADY       0.453900
     15 N6           4.9650     1.0600     0.4500 nv         1 ADY      -1.063900
     16 N1           3.9630     0.4850    -1.5310 nb         1 ADY      -0.301000
     17 C10          2.8480     0.0670    -2.1800 ca         1 ADY       0.187900
     18 N3           1.6410    -0.2010    -1.6260 nb         1 ADY      -0.219000
     19 C9           1.5600    -0.0270    -0.2920 ca         1 ADY       0.147500
     20 HO5         -4.2640     2.4410    -2.2370 ho         1 ADY       0.510000
     21 H5'1        -4.8700     0.8310    -0.6420 h1         1 ADY       0.033200
     22 H5'2        -3.5950     1.9350    -0.0920 h1         1 ADY       0.033200
     23 H4          -3.0130    -0.7980    -1.3850 h1         1 ADY       0.097700
     24 H2          -1.7590    -0.0920     2.1880 h1         1 ADY       0.064700
     25 HO2         -2.3920    -2.3440     2.7140 ho         1 ADY       0.525000
     26 H1          -0.7030    -1.5650    -0.3230 h2         1 ADY       0.114700
     27 H8           0.4120     0.0720     2.7600 h5         1 ADY       0.065800
     28 HN61         5.7000     1.5010    -0.0980 hn         1 ADY       0.507500
     29 HN62         4.8450     1.3930     1.4030 hn         1 ADY       0.507500
     30 H3           2.9310    -0.0660    -3.2570 h5         1 ADY       0.048100
@<TRIPOS>BOND
     1     1     2 1   
     2     1    20 1   
     3     2     3 1   
     4     2    21 1   
     5     2    22 1   
     6     3     4 1   
     7     3     5 1   
     8     3    23 1   
     9     4     9 1   
    10     5     6 2   
    11     5     7 1   
    12     7     8 1   
    13     7     9 1   
    14     7    24 1   
    15     8    25 1   
    16     9    10 1   
    17     9    26 1   
    18    10    11 1   
    19    10    19 1   
    20    11    12 2   
    21    11    27 1   
    22    12    13 1   
    23    13    14 ar  
    24    13    19 ar  
    25    14    15 1   
    26    14    16 ar  
    27    15    28 1   
    28    15    29 1   
    29    16    17 ar  
    30    17    18 ar  
    31    17    30 1   
    32    18    19 ar  
@<TRIPOS>SUBSTRUCTURE
     1 ADY         1 TEMP              0 ****  ****    0 ROOT
