@<TRIPOS>MOLECULE
ADZ
   18    19     1     0     0
SMALL
No Charge or Current Charge


@<TRIPOS>ATOM
      1 N9           0.1220    -0.0250     1.8370 na         1 ADZ      -0.277300
      2 C8           1.5100    -0.0270     1.6880 cc         1 ADZ       0.400700
      3 N7           1.8490     0.0190     0.3840 nd         1 ADZ      -0.550100
      4 C5           0.6110     0.0520    -0.2740 ca         1 ADZ      -0.102600
      5 C6           0.3280     0.1040    -1.6550 ca         1 ADZ       0.452900
      6 N6           1.3030     0.1310    -2.6020 nv         1 ADZ      -1.066900
      7 N1          -0.9360     0.1180    -2.1060 nb         1 ADZ      -0.304000
      8 C2          -1.9070     0.0880    -1.1600 ca         1 ADZ       0.182900
      9 N3          -1.7310     0.0410     0.1830 nb         1 ADZ      -0.221000
     10 C4          -0.4490     0.0240     0.5990 ca         1 ADZ       0.120500
     11 C1          -0.6660    -0.0680     3.0790 c3         1 ADZ       0.073900
     12 H8           2.1900    -0.0630     2.5320 h5         1 ADZ       0.063800
     13 H6N1         1.0500    -0.1320    -3.5510 hn         1 ADZ       0.507000
     14 H6N2         2.2460    -0.1020    -2.3000 hn         1 ADZ       0.507000
     15 H2          -2.9360     0.1010    -1.5160 h5         1 ADZ       0.045100
     16 H1'1        -1.2970     0.8270     3.1460 h1         1 ADZ       0.055700
     17 H1'2        -1.3030    -0.9610     3.0810 h1         1 ADZ       0.055700
     18 H1'3         0.0050    -0.1010     3.9460 h1         1 ADZ       0.055700
@<TRIPOS>BOND
     1     1     2 1   
     2     1    10 1   
     3     1    11 1   
     4     2     3 2   
     5     2    12 1   
     6     3     4 1   
     7     4     5 ar  
     8     4    10 ar  
     9     5     6 1   
    10     5     7 ar  
    11     6    13 1   
    12     6    14 1   
    13     7     8 ar  
    14     8     9 ar  
    15     8    15 1   
    16     9    10 ar  
    17    11    16 1   
    18    11    17 1   
    19    11    18 1   
@<TRIPOS>SUBSTRUCTURE
     1 ADZ         1 TEMP              0 ****  ****    0 ROOT
