@<TRIPOS>MOLECULE
ADZ
   18    19     1     0     0
SMALL
abcg2


@<TRIPOS>ATOM
      1 N9           0.0780    -0.0280     1.8200 na         1 ADZ      -0.277300
      2 C8           1.4320    -0.0560     1.6630 cc         1 ADZ       0.400700
      3 N7           1.8170    -0.0400     0.4190 nd         1 ADZ      -0.550100
      4 C5           0.6450    -0.0000    -0.2900 ca         1 ADZ      -0.102600
      5 C6           0.3560     0.0310    -1.6670 ca         1 ADZ       0.452900
      6 N6           1.3070     0.0280    -2.6030 nv         1 ADZ      -1.066900
      7 N1          -0.9290     0.0650    -2.0370 nb         1 ADZ      -0.304000
      8 C2          -1.8750     0.0680    -1.1010 ca         1 ADZ       0.182900
      9 N3          -1.7320     0.0420     0.2120 nb         1 ADZ      -0.221000
     10 C4          -0.4480     0.0070     0.5660 ca         1 ADZ       0.120500
     11 C1          -0.6620    -0.0370     3.0610 c3         1 ADZ       0.073900
     12 H8           2.0900    -0.0880     2.5190 h5         1 ADZ       0.063800
     13 H6N1         1.0610     0.0470    -3.5770 hn         1 ADZ       0.507000
     14 H6N2         2.2800     0.0050    -2.3560 hn         1 ADZ       0.507000
     15 H2          -2.8940     0.0970    -1.4700 h5         1 ADZ       0.045100
     16 H1'1        -1.2770     0.8570     3.1430 h1         1 ADZ       0.055700
     17 H1'2        -1.3010    -0.9150     3.1190 h1         1 ADZ       0.055700
     18 H1'3         0.0400    -0.0570     3.8910 h1         1 ADZ       0.055700
@<TRIPOS>BOND
     1     1     2 1   
     2     1    10 1   
     3     1    11 1   
     4     2     3 2   
     5     2    12 1   
     6     3     4 1   
     7     4     5 ar  
     8     4    10 ar  
     9     5     6 1   
    10     5     7 ar  
    11     6    13 1   
    12     6    14 1   
    13     7     8 ar  
    14     8     9 ar  
    15     8    15 1   
    16     9    10 ar  
    17    11    16 1   
    18    11    17 1   
    19    11    18 1   
@<TRIPOS>SUBSTRUCTURE
     1 ADZ         1 TEMP              0 ****  ****    0 ROOT
