@<TRIPOS>MOLECULE
AE0
   73    76     1     0     0
SMALL
No Charge or Current Charge


@<TRIPOS>ATOM
      1 C10         -6.0960    -1.5240    -0.5040 c          1 AE0       0.604100
      2 C13         -7.0470    -2.7680    -2.3330 c3         1 AE0       0.167600
      3 C15         -2.8930    -0.6040    -0.4920 c          1 AE0       0.559200
      4 C20          0.5660    -1.1350     0.1000 ca         1 AE0      -0.093500
      5 C21          1.7780    -1.4360     0.7440 ca         1 AE0      -0.090500
      6 C22          2.9540    -0.7020     0.4640 cp         1 AE0      -0.042000
      7 C24          1.6600     0.6600    -1.1180 ca         1 AE0      -0.093500
      8 C26          4.2410    -1.0430     2.5820 ca         1 AE0      -0.104000
      9 C28          6.6150    -1.5190     2.6160 ca         1 AE0      -0.109000
     10 C01         -0.4210     6.2700     1.6350 c3         1 AE0      -0.088100
     11 C02         -0.1940     5.0110     0.7760 c3         1 AE0      -0.078400
     12 C03         -1.3140     3.9590     0.9360 c3         1 AE0      -0.065400
     13 C05         -2.1280     1.5860     0.1660 cc         1 AE0       0.522900
     14 C07         -4.1380     0.8370     1.1260 cd         1 AE0       0.224400
     15 C08         -4.0040    -0.3620     0.4440 cc         1 AE0      -0.255400
     16 C09         -4.9890    -1.5310     0.5600 c3         1 AE0      -0.067200
     17 C14         -6.7720    -4.0860    -3.0740 c3         1 AE0      -0.097100
     18 C19          0.4980    -0.0820    -0.8330 ca         1 AE0      -0.097300
     19 C23          2.8710     0.3570    -0.4720 ca         1 AE0      -0.090500
     20 C25          4.2350    -1.0150     1.1660 cp         1 AE0       0.015000
     21 C27          5.4170    -1.2890     3.3030 ca         1 AE0      -0.085000
     22 C29          6.6340    -1.5050     1.2130 ca         1 AE0      -0.085000
     23 C30          5.4590    -1.2470     0.4670 ca         1 AE0      -0.130900
     24 C31          5.5480    -1.3390    -0.9950 cc         1 AE0       0.430500
     25 C34          6.4780    -1.0280    -2.9880 c          1 AE0       0.652100
     26 C37         -5.2890     1.1880     2.0660 c3         1 AE0      -0.013500
     27 C38         -4.8970     0.9480     3.5410 c3         1 AE0      -0.084100
     28 C39         -5.8320     2.6230     1.8500 c3         1 AE0      -0.084100
     29 N06         -3.1530     1.8100     0.9840 nd         1 AE0      -0.660300
     30 N17         -1.9730     0.4340    -0.5970 n          1 AE0      -0.310300
     31 N32          4.6690    -1.8750    -1.8250 nd         1 AE0      -0.288700
     32 N36          6.5990    -0.8510    -1.6730 ns         1 AE0      -0.563900
     33 O11         -6.9450    -0.6460    -0.5900 o          1 AE0      -0.491000
     34 O12         -6.0570    -2.6400    -1.2990 os         1 AE0      -0.449100
     35 O16         -2.7800    -1.6400    -1.1360 o          1 AE0      -0.554000
     36 O33          5.2730    -1.6780    -3.1370 os         1 AE0      -0.225100
     37 O35          7.2610    -0.6870    -3.8570 o          1 AE0      -0.501000
     38 H1          -6.9850    -1.9300    -3.0410 h1         1 AE0       0.048200
     39 H2          -8.0590    -2.7910    -1.9070 h1         1 AE0       0.048200
     40 H3          -0.3190    -1.7230     0.3310 ha         1 AE0       0.122500
     41 H4           1.8110    -2.2520     1.4620 ha         1 AE0       0.116500
     42 H5           1.6280     1.4780    -1.8340 ha         1 AE0       0.122500
     43 H6           3.3170    -0.8560     3.1250 ha         1 AE0       0.126000
     44 H7           7.5300    -1.7200     3.1700 ha         1 AE0       0.123000
     45 H8           0.3970     6.9850     1.4880 hc         1 AE0       0.033700
     46 H9          -1.3610     6.7630     1.3600 hc         1 AE0       0.033700
     47 H10         -0.4630     6.0110     2.7000 hc         1 AE0       0.033700
     48 H11         -0.1210     5.3080    -0.2780 hc         1 AE0       0.035200
     49 H12          0.7690     4.5620     1.0500 hc         1 AE0       0.035200
     50 H13         -1.3820     3.6720     1.9930 hc         1 AE0       0.057200
     51 H14         -2.2740     4.4160     0.6630 hc         1 AE0       0.057200
     52 H15         -0.9960     3.0160    -0.9720 hc         1 AE0       0.063700
     53 H16         -0.1070     2.2770     0.3560 hc         1 AE0       0.063700
     54 H19         -5.4730    -1.5280     1.5410 hc         1 AE0       0.080200
     55 H20         -4.4560    -2.4880     0.5030 hc         1 AE0       0.080200
     56 H21         -5.7700    -4.0770    -3.5190 hc         1 AE0       0.045367
     57 H22         -6.8440    -4.9370    -2.3870 hc         1 AE0       0.045367
     58 H23         -7.5040    -4.2290    -3.8780 hc         1 AE0       0.045367
     59 H24         -0.6970     1.1680    -2.1260 h1         1 AE0       0.081700
     60 H25         -1.0280    -0.5310    -2.2630 h1         1 AE0       0.081700
     61 H26          3.7550     0.9510    -0.6940 ha         1 AE0       0.116500
     62 H27          5.3990    -1.3020     4.3910 ha         1 AE0       0.122000
     63 H28          7.5720    -1.7200     0.7040 ha         1 AE0       0.121000
     64 H29         -6.1430     0.5360     1.8550 hc         1 AE0       0.050700
     65 H30         -4.0720     1.6070     3.8370 hc         1 AE0       0.041200
     66 H31         -5.7480     1.1410     4.2060 hc         1 AE0       0.041200
     67 H32         -4.5770    -0.0900     3.6900 hc         1 AE0       0.041200
     68 H33         -5.0860     3.3780     2.1270 hc         1 AE0       0.041200
     69 H34         -6.1050     2.7760     0.7990 hc         1 AE0       0.041200
     70 H35         -6.7270     2.7930     2.4610 hc         1 AE0       0.041200
     71 H17          7.3870    -0.3660    -1.2710 hn         1 AE0       0.480000
     72 C18         -0.8190     0.2570    -1.5290 c3         1 AE0       0.125300
     73 C04         -1.0800     2.6900     0.0700 c3         1 AE0      -0.120700
@<TRIPOS>BOND
     1     1    16 1   
     2     1    33 2   
     3     1    34 1   
     4     2    17 1   
     5     2    34 1   
     6     2    38 1   
     7     2    39 1   
     8     3    15 1   
     9     3    30 1   
    10     3    35 2   
    11     4     5 ar  
    12     4    18 ar  
    13     4    40 1   
    14     5     6 ar  
    15     5    41 1   
    16     6    19 ar  
    17     6    20 1   
    18     7    18 ar  
    19     7    19 ar  
    20     7    42 1   
    21     8    20 ar  
    22     8    21 ar  
    23     8    43 1   
    24     9    21 ar  
    25     9    22 ar  
    26     9    44 1   
    27    10    11 1   
    28    10    45 1   
    29    10    46 1   
    30    10    47 1   
    31    11    12 1   
    32    11    48 1   
    33    11    49 1   
    34    12    50 1   
    35    12    51 1   
    36    12    73 1   
    37    13    29 2   
    38    13    30 1   
    39    13    73 1   
    40    14    15 2   
    41    14    26 1   
    42    14    29 1   
    43    15    16 1   
    44    16    54 1   
    45    16    55 1   
    46    17    56 1   
    47    17    57 1   
    48    17    58 1   
    49    18    72 1   
    50    19    61 1   
    51    20    23 ar  
    52    21    62 1   
    53    22    23 ar  
    54    22    63 1   
    55    23    24 1   
    56    24    31 2   
    57    24    32 1   
    58    25    32 1   
    59    25    36 1   
    60    25    37 2   
    61    26    27 1   
    62    26    28 1   
    63    26    64 1   
    64    27    65 1   
    65    27    66 1   
    66    27    67 1   
    67    28    68 1   
    68    28    69 1   
    69    28    70 1   
    70    30    72 1   
    71    31    36 1   
    72    32    71 1   
    73    52    73 1   
    74    53    73 1   
    75    59    72 1   
    76    60    72 1   
@<TRIPOS>SUBSTRUCTURE
     1 AE0         1 TEMP              0 ****  ****    0 ROOT
