@<TRIPOS>MOLECULE
AE0
   73    76     1     0     0
SMALL
abcg2


@<TRIPOS>ATOM
      1 C10         -5.6110    -1.5340    -1.0040 c          1 AE0       0.604100
      2 C13         -6.8140    -2.9790    -2.4440 c3         1 AE0       0.167600
      3 C15         -2.7940    -0.4810    -0.5330 c          1 AE0       0.559200
      4 C20          0.5880    -1.0530     0.0970 ca         1 AE0      -0.093500
      5 C21          1.7760    -1.4300     0.7030 ca         1 AE0      -0.090500
      6 C22          2.9540    -0.7250     0.4650 cp         1 AE0      -0.042000
      7 C24          1.7190     0.7580    -0.9830 ca         1 AE0      -0.093500
      8 C26          4.2440    -1.2340     2.5230 ca         1 AE0      -0.104000
      9 C28          6.6030    -1.7000     2.4850 ca         1 AE0      -0.109000
     10 C01         -0.4550     6.1160     2.0620 c3         1 AE0      -0.088100
     11 C02         -0.2160     4.9720     1.0870 c3         1 AE0      -0.078400
     12 C03         -1.2960     3.9000     1.1710 c3         1 AE0      -0.065400
     13 C05         -2.0540     1.6650     0.2470 cc         1 AE0       0.522900
     14 C07         -4.0240     0.8240     1.0830 cd         1 AE0       0.224400
     15 C08         -3.9230    -0.3160     0.3450 cc         1 AE0      -0.255400
     16 C09         -4.8960    -1.4490     0.3250 c3         1 AE0      -0.067200
     17 C14         -7.2430    -4.4260    -2.4590 c3         1 AE0      -0.097100
     18 C19          0.5450     0.0480    -0.7530 ca         1 AE0      -0.097300
     19 C23          2.9090     0.3770    -0.3840 ca         1 AE0      -0.090500
     20 C25          4.2140    -1.1120     1.1350 cp         1 AE0       0.015000
     21 C27          5.4220    -1.5270     3.1930 ca         1 AE0      -0.085000
     22 C29          6.5920    -1.5950     1.1040 ca         1 AE0      -0.085000
     23 C30          5.4060    -1.3170     0.4290 ca         1 AE0      -0.130900
     24 C31          5.4400    -1.2970    -1.0360 cc         1 AE0       0.430500
     25 C34          6.0670    -0.7850    -3.0860 c          1 AE0       0.652100
     26 C37         -5.1790     1.1660     1.9880 c3         1 AE0      -0.013500
     27 C38         -4.6950     1.5190     3.3930 c3         1 AE0      -0.084100
     28 C39         -5.9740     2.3160     1.3670 c3         1 AE0      -0.084100
     29 N06         -3.0730     1.7950     1.0260 nd         1 AE0      -0.660300
     30 N17         -1.8770     0.5680    -0.5470 n          1 AE0      -0.310300
     31 N32          4.7000    -2.0230    -1.7950 nd         1 AE0      -0.288700
     32 N36          6.2980    -0.5340    -1.7660 ns         1 AE0      -0.563900
     33 O11         -5.7750    -0.6010    -1.7490 o          1 AE0      -0.491000
     34 O12         -6.0730    -2.7530    -1.2330 os         1 AE0      -0.449100
     35 O16         -2.6280    -1.4700    -1.2380 o          1 AE0      -0.554000
     36 O33          5.0780    -1.7030    -3.0910 os         1 AE0      -0.225100
     37 O35          6.5790    -0.3340    -4.0740 o          1 AE0      -0.501000
     38 H1          -6.1830    -2.7500    -3.3050 h1         1 AE0       0.048200
     39 H2          -7.6800    -2.3140    -2.4750 h1         1 AE0       0.048200
     40 H3          -0.3040    -1.6370     0.2870 ha         1 AE0       0.122500
     41 H4           1.7890    -2.2960     1.3540 ha         1 AE0       0.116500
     42 H5           1.7060     1.6280    -1.6280 ha         1 AE0       0.122500
     43 H6           3.3360    -1.0680     3.0880 ha         1 AE0       0.126000
     44 H7           7.5260    -1.9230     3.0020 ha         1 AE0       0.123000
     45 H8           0.3310     6.8680     1.9940 hc         1 AE0       0.033700
     46 H9          -1.4070     6.6110     1.8640 hc         1 AE0       0.033700
     47 H10         -0.4800     5.7550     3.0920 hc         1 AE0       0.033700
     48 H11         -0.1690     5.3650     0.0660 hc         1 AE0       0.035200
     49 H12          0.7620     4.5220     1.2840 hc         1 AE0       0.035200
     50 H13         -1.3490     3.5100     2.1900 hc         1 AE0       0.057200
     51 H14         -2.2730     4.3410     0.9640 hc         1 AE0       0.057200
     52 H15         -0.9790     3.1530    -0.8210 hc         1 AE0       0.063700
     53 H16         -0.0430     2.3330     0.4000 hc         1 AE0       0.063700
     54 H19         -5.6590    -1.3370     1.0960 hc         1 AE0       0.080200
     55 H20         -4.3960    -2.3970     0.5340 hc         1 AE0       0.080200
     56 H21         -6.3860    -5.0980    -2.4290 hc         1 AE0       0.045367
     57 H22         -7.9000    -4.6590    -1.6210 hc         1 AE0       0.045367
     58 H23         -7.7930    -4.6250    -3.3780 hc         1 AE0       0.045367
     59 H24         -0.5890     1.4120    -1.9580 h1         1 AE0       0.081700
     60 H25         -0.9870    -0.2680    -2.2100 h1         1 AE0       0.081700
     61 H26          3.8020     0.9640    -0.5640 ha         1 AE0       0.116500
     62 H27          5.4180    -1.6080     4.2720 ha         1 AE0       0.122000
     63 H28          7.5050    -1.7580     0.5450 ha         1 AE0       0.121000
     64 H29         -5.8490     0.3090     2.0710 hc         1 AE0       0.050700
     65 H30         -4.0290     2.3810     3.3730 hc         1 AE0       0.041200
     66 H31         -5.5460     1.7600     4.0310 hc         1 AE0       0.041200
     67 H32         -4.1600     0.6860     3.8520 hc         1 AE0       0.041200
     68 H33         -5.3590     3.2130     1.2780 hc         1 AE0       0.041200
     69 H34         -6.3390     2.0530     0.3720 hc         1 AE0       0.041200
     70 H35         -6.8390     2.5580     1.9860 hc         1 AE0       0.041200
     71 H17          6.9550     0.1460    -1.4130 hn         1 AE0       0.480000
     72 C18         -0.7270     0.4610    -1.4460 c3         1 AE0       0.125300
     73 C04         -1.0300     2.7600     0.2000 c3         1 AE0      -0.120700
@<TRIPOS>BOND
     1     1    16 1   
     2     1    33 2   
     3     1    34 1   
     4     2    17 1   
     5     2    34 1   
     6     2    38 1   
     7     2    39 1   
     8     3    15 1   
     9     3    30 1   
    10     3    35 2   
    11     4     5 ar  
    12     4    18 ar  
    13     4    40 1   
    14     5     6 ar  
    15     5    41 1   
    16     6    19 ar  
    17     6    20 1   
    18     7    18 ar  
    19     7    19 ar  
    20     7    42 1   
    21     8    20 ar  
    22     8    21 ar  
    23     8    43 1   
    24     9    21 ar  
    25     9    22 ar  
    26     9    44 1   
    27    10    11 1   
    28    10    45 1   
    29    10    46 1   
    30    10    47 1   
    31    11    12 1   
    32    11    48 1   
    33    11    49 1   
    34    12    50 1   
    35    12    51 1   
    36    12    73 1   
    37    13    29 2   
    38    13    30 1   
    39    13    73 1   
    40    14    15 2   
    41    14    26 1   
    42    14    29 1   
    43    15    16 1   
    44    16    54 1   
    45    16    55 1   
    46    17    56 1   
    47    17    57 1   
    48    17    58 1   
    49    18    72 1   
    50    19    61 1   
    51    20    23 ar  
    52    21    62 1   
    53    22    23 ar  
    54    22    63 1   
    55    23    24 1   
    56    24    31 2   
    57    24    32 1   
    58    25    32 1   
    59    25    36 1   
    60    25    37 2   
    61    26    27 1   
    62    26    28 1   
    63    26    64 1   
    64    27    65 1   
    65    27    66 1   
    66    27    67 1   
    67    28    68 1   
    68    28    69 1   
    69    28    70 1   
    70    30    72 1   
    71    31    36 1   
    72    32    71 1   
    73    52    73 1   
    74    53    73 1   
    75    59    72 1   
    76    60    72 1   
@<TRIPOS>SUBSTRUCTURE
     1 AE0         1 TEMP              0 ****  ****    0 ROOT
