@<TRIPOS>MOLECULE
AE1
   35    34     1     0     0
SMALL
No Charge or Current Charge


@<TRIPOS>ATOM
      1 O1          -5.7270     0.7320    -0.3760 o          1 AE1      -0.783000
      2 C3          -4.9170     0.4730     0.5020 c          1 AE1       0.706000
      3 O2          -4.9910     0.9270     1.6340 o          1 AE1      -0.783000
      4 C2          -3.7240    -0.4480     0.1580 c3         1 AE1      -0.202400
      5 C1          -2.4680     0.3480    -0.3250 c3         1 AE1      -0.175500
      6 N           -2.7970     0.9620    -1.6750 n8         1 AE1      -0.985200
      7 P           -0.8200    -0.6050     0.0060 p5         1 AE1       1.410000
      8 O1P         -0.7270    -1.8050    -0.8910 o          1 AE1      -0.861000
      9 O2P         -0.6900    -0.9650     1.4560 o          1 AE1      -0.861000
     10 C8           0.4910     0.6220    -0.4500 c3         1 AE1      -0.410400
     11 C6           1.9520     0.3990     0.0830 c3         1 AE1      -0.143700
     12 C7           2.8410     1.6690    -0.1010 c          1 AE1       0.715000
     13 O4           3.0970     2.0550    -1.2330 o          1 AE1      -0.780500
     14 O3           3.2400     2.2470     0.9000 o          1 AE1      -0.780500
     15 C5           2.6200    -0.8660    -0.5380 c3         1 AE1      -0.048400
     16 C16          4.0650    -1.1860    -0.0560 c3         1 AE1      -0.056700
     17 C17          4.1460    -1.4660     1.4650 c3         1 AE1      -0.077100
     18 C18          4.6650    -2.3630    -0.8580 c3         1 AE1      -0.077100
     19 H21         -3.9900    -1.1390    -0.6520 hc         1 AE1       0.029700
     20 H22         -3.4110    -0.9650     1.0730 hc         1 AE1       0.029700
     21 H1          -2.3450     1.1850     0.3750 h1         1 AE1       0.056700
     22 HN1         -2.7840     0.2330    -2.4000 hn         1 AE1       0.372500
     23 HN2         -3.7790     1.2720    -1.6680 hn         1 AE1       0.372500
     24 H81          0.1190     1.5790    -0.0710 hc         1 AE1       0.045700
     25 H82          0.4930     0.6920    -1.5430 hc         1 AE1       0.045700
     26 H6           1.8610     0.2310     1.1620 hc         1 AE1       0.043700
     27 H51          2.6340    -0.7480    -1.6290 hc         1 AE1       0.038200
     28 H52          1.9920    -1.7420    -0.3340 hc         1 AE1       0.038200
     29 H16          4.6960    -0.3120    -0.2620 hc         1 AE1       0.052700
     30 H171         5.1710    -1.7270     1.7550 hc         1 AE1       0.011367
     31 H172         3.8540    -0.5860     2.0480 hc         1 AE1       0.011367
     32 H173         3.4900    -2.2990     1.7430 hc         1 AE1       0.011367
     33 H183         5.7020    -2.5520    -0.5540 hc         1 AE1       0.011367
     34 H181         4.0870    -3.2820    -0.6950 hc         1 AE1       0.011367
     35 H182         4.6640    -2.1420    -1.9320 hc         1 AE1       0.011367
@<TRIPOS>BOND
     1     1     2 1   
     2     2     3 1   
     3     2     4 1   
     4     4     5 1   
     5     4    19 1   
     6     4    20 1   
     7     5     6 1   
     8     5     7 1   
     9     5    21 1   
    10     6    22 1   
    11     6    23 1   
    12     7     8 1   
    13     7     9 1   
    14     7    10 1   
    15    10    11 1   
    16    10    24 1   
    17    10    25 1   
    18    11    12 1   
    19    11    15 1   
    20    11    26 1   
    21    12    13 1   
    22    12    14 1   
    23    15    16 1   
    24    15    27 1   
    25    15    28 1   
    26    16    17 1   
    27    16    18 1   
    28    16    29 1   
    29    17    30 1   
    30    17    31 1   
    31    17    32 1   
    32    18    33 1   
    33    18    34 1   
    34    18    35 1   
@<TRIPOS>SUBSTRUCTURE
     1 AE1         1 TEMP              0 ****  ****    0 ROOT
