@<TRIPOS>MOLECULE
AE1
   35    34     1     0     0
SMALL
abcg2


@<TRIPOS>ATOM
      1 O1          -5.8820    -0.5740     0.3050 o          1 AE1      -0.783000
      2 C3          -4.9080     0.1980     0.1780 c          1 AE1       0.706000
      3 O2          -4.9710     1.4390     0.0540 o          1 AE1      -0.783000
      4 C2          -3.5160    -0.4610     0.2070 c3         1 AE1      -0.202400
      5 C1          -2.3400     0.4310    -0.1790 c3         1 AE1      -0.175500
      6 N           -2.4000     0.9540    -1.5410 n8         1 AE1      -0.985200
      7 P           -0.7520    -0.4970     0.0330 p5         1 AE1       1.410000
      8 O1P         -0.7010    -1.5590    -1.0560 o          1 AE1      -0.861000
      9 O2P         -0.6510    -0.9450     1.4830 o          1 AE1      -0.861000
     10 C8           0.5290     0.7950    -0.2670 c3         1 AE1      -0.410400
     11 C6           1.9330     0.4130     0.2250 c3         1 AE1      -0.143700
     12 C7           2.8410     1.6540     0.1520 c          1 AE1       0.715000
     13 O4           3.2140     2.0160    -0.9850 o          1 AE1      -0.780500
     14 O3           3.1160     2.2310     1.2260 o          1 AE1      -0.780500
     15 C5           2.5120    -0.7630    -0.5600 c3         1 AE1      -0.048400
     16 C16          3.9270    -1.1860    -0.1630 c3         1 AE1      -0.056700
     17 C17          4.0500    -1.4900     1.3260 c3         1 AE1      -0.077100
     18 C18          4.3610    -2.3930    -0.9910 c3         1 AE1      -0.077100
     19 H21         -3.5300    -1.3400    -0.4490 hc         1 AE1       0.029700
     20 H22         -3.3600    -0.8580     1.2160 hc         1 AE1       0.029700
     21 H1          -2.3130     1.2870     0.5060 h1         1 AE1       0.056700
     22 HN1         -2.3580     0.1720    -2.1840 hn         1 AE1       0.372500
     23 HN2         -3.3080     1.3840    -1.6710 hn         1 AE1       0.372500
     24 H81          0.2010     1.6980     0.2610 hc         1 AE1       0.045700
     25 H82          0.5560     1.0510    -1.3280 hc         1 AE1       0.045700
     26 H6           1.8360     0.1200     1.2740 hc         1 AE1       0.043700
     27 H51          2.5090    -0.5120    -1.6250 hc         1 AE1       0.038200
     28 H52          1.8480    -1.6260    -0.4550 hc         1 AE1       0.038200
     29 H16          4.6090    -0.3600    -0.3970 hc         1 AE1       0.052700
     30 H171         5.0530    -1.8430     1.5720 hc         1 AE1       0.011367
     31 H172         3.8520    -0.6100     1.9370 hc         1 AE1       0.011367
     32 H173         3.3430    -2.2690     1.6260 hc         1 AE1       0.011367
     33 H183         5.3930    -2.6790    -0.7760 hc         1 AE1       0.011367
     34 H181         3.7270    -3.2580    -0.7760 hc         1 AE1       0.011367
     35 H182         4.2890    -2.1910    -2.0620 hc         1 AE1       0.011367
@<TRIPOS>BOND
     1     1     2 1   
     2     2     3 1   
     3     2     4 1   
     4     4     5 1   
     5     4    19 1   
     6     4    20 1   
     7     5     6 1   
     8     5     7 1   
     9     5    21 1   
    10     6    22 1   
    11     6    23 1   
    12     7     8 1   
    13     7     9 1   
    14     7    10 1   
    15    10    11 1   
    16    10    24 1   
    17    10    25 1   
    18    11    12 1   
    19    11    15 1   
    20    11    26 1   
    21    12    13 1   
    22    12    14 1   
    23    15    16 1   
    24    15    27 1   
    25    15    28 1   
    26    16    17 1   
    27    16    18 1   
    28    16    29 1   
    29    17    30 1   
    30    17    31 1   
    31    17    32 1   
    32    18    33 1   
    33    18    34 1   
    34    18    35 1   
@<TRIPOS>SUBSTRUCTURE
     1 AE1         1 TEMP              0 ****  ****    0 ROOT
