@<TRIPOS>MOLECULE
AE2
   51    54     1     0     0
SMALL
No Charge or Current Charge


@<TRIPOS>ATOM
      1 C1           1.2810    -1.0910     2.7050 c6         1 AE2      -0.066400
      2 C2           1.6550     0.3230     3.2150 c6         1 AE2      -0.111400
      3 C3           0.4580     0.9650     3.9510 c6         1 AE2       0.171300
      4 O3           0.8000     2.2860     4.3780 oh         1 AE2      -0.661000
      5 C4          -0.7850     1.0100     3.0320 c6         1 AE2      -0.071400
      6 C5          -1.1620    -0.4070     2.4840 c6         1 AE2      -0.050700
      7 C6          -2.4300    -0.3280     1.5840 c6         1 AE2      -0.067400
      8 C7          -2.1530     0.3730     0.2310 c6         1 AE2      -0.071400
      9 C8          -0.9740    -0.2900    -0.5340 c6         1 AE2      -0.041700
     10 C9           0.3190    -0.3700     0.3650 c6         1 AE2      -0.046700
     11 C10          0.0390    -1.1160     1.7420 c6         1 AE2      -0.030000
     12 C11          1.5360    -0.9480    -0.4440 c6         1 AE2      -0.072400
     13 C12          1.7840    -0.1950    -1.7850 c6         1 AE2      -0.050400
     14 C13          0.5040    -0.1590    -2.6760 c5         1 AE2      -0.154000
     15 C14         -0.6420     0.4870    -1.8380 c5         1 AE2      -0.061700
     16 C15         -1.7590     0.7090    -2.8920 c5         1 AE2      -0.067400
     17 C16         -0.9390     1.0980    -4.1690 c5         1 AE2      -0.191400
     18 C17          0.5560     0.8210    -3.8760 c          1 AE2       0.580100
     19 O17          1.4390     1.6570    -4.0260 o          1 AE2      -0.513100
     20 C18          0.2260    -1.6040    -3.2190 c3         1 AE2      -0.078100
     21 C19         -0.3040    -2.6310     1.5100 c3         1 AE2      -0.085100
     22 H11          1.0680    -1.7190     3.5820 hc         1 AE2       0.040700
     23 H12          2.1560    -1.5580     2.2350 hc         1 AE2       0.040700
     24 H21          2.5110     0.2460     3.8980 hc         1 AE2       0.046200
     25 H22          1.9830     0.9590     2.3820 hc         1 AE2       0.046200
     26 H3           0.2170     0.3460     4.8270 h1         1 AE2       0.024700
     27 HO3          1.5710     2.1950     4.9790 ho         1 AE2       0.441000
     28 H41         -1.6320     1.4190     3.5980 hc         1 AE2       0.052700
     29 H42         -0.6010     1.7170     2.2140 hc         1 AE2       0.052700
     30 H5          -1.4270    -1.0180     3.3580 hc         1 AE2       0.043700
     31 H61         -2.8250    -1.3350     1.3990 hc         1 AE2       0.040700
     32 H62         -3.2300     0.2060     2.1140 hc         1 AE2       0.040700
     33 H71         -3.0640     0.3310    -0.3810 hc         1 AE2       0.040200
     34 H72         -1.9480     1.4390     0.3920 hc         1 AE2       0.040200
     35 H8          -1.2880    -1.3010    -0.8180 hc         1 AE2       0.050700
     36 H9           0.5930     0.6670     0.5960 hc         1 AE2       0.049700
     37 H111         2.4540    -0.8720     0.1510 hc         1 AE2       0.040200
     38 H112         1.3980    -2.0170    -0.6440 hc         1 AE2       0.040200
     39 H121         2.1060     0.8300    -1.5550 hc         1 AE2       0.050200
     40 H122         2.6180    -0.6590    -2.3300 hc         1 AE2       0.050200
     41 H14         -0.3160     1.4760    -1.4860 hc         1 AE2       0.048700
     42 H151        -2.3520    -0.2000    -3.0510 hc         1 AE2       0.048700
     43 H152        -2.4580     1.4990    -2.5940 hc         1 AE2       0.048700
     44 H161        -1.2530     0.4220    -4.9720 hc         1 AE2       0.071700
     45 H162        -1.0810     2.1360    -4.4850 hc         1 AE2       0.071700
     46 H181         0.0440    -2.3290    -2.4180 hc         1 AE2       0.039700
     47 H182        -0.6460    -1.6490    -3.8810 hc         1 AE2       0.039700
     48 H183         1.0810    -1.9720    -3.7990 hc         1 AE2       0.039700
     49 H191        -0.5900    -3.1190     2.4490 hc         1 AE2       0.033367
     50 H192        -1.1330    -2.7860     0.8120 hc         1 AE2       0.033367
     51 H193         0.5550    -3.1870     1.1190 hc         1 AE2       0.033367
@<TRIPOS>BOND
     1     1     2 1   
     2     1    11 1   
     3     1    22 1   
     4     1    23 1   
     5     2     3 1   
     6     2    24 1   
     7     2    25 1   
     8     3     4 1   
     9     3     5 1   
    10     3    26 1   
    11     4    27 1   
    12     5     6 1   
    13     5    28 1   
    14     5    29 1   
    15     6     7 1   
    16     6    11 1   
    17     6    30 1   
    18     7     8 1   
    19     7    31 1   
    20     7    32 1   
    21     8     9 1   
    22     8    33 1   
    23     8    34 1   
    24     9    10 1   
    25     9    15 1   
    26     9    35 1   
    27    10    11 1   
    28    10    12 1   
    29    10    36 1   
    30    11    21 1   
    31    12    13 1   
    32    12    37 1   
    33    12    38 1   
    34    13    14 1   
    35    13    39 1   
    36    13    40 1   
    37    14    15 1   
    38    14    18 1   
    39    14    20 1   
    40    15    16 1   
    41    15    41 1   
    42    16    17 1   
    43    16    42 1   
    44    16    43 1   
    45    17    18 1   
    46    17    44 1   
    47    17    45 1   
    48    18    19 2   
    49    20    46 1   
    50    20    47 1   
    51    20    48 1   
    52    21    49 1   
    53    21    50 1   
    54    21    51 1   
@<TRIPOS>SUBSTRUCTURE
     1 AE2         1 TEMP              0 ****  ****    0 ROOT
