@<TRIPOS>MOLECULE
AE2
   51    54     1     0     0
SMALL
abcg2


@<TRIPOS>ATOM
      1 C1           1.2570    -1.0710     2.6420 c6         1 AE2      -0.066400
      2 C2           1.6240     0.3240     3.1260 c6         1 AE2      -0.111400
      3 C3           0.4480     0.9470     3.8640 c6         1 AE2       0.171300
      4 O3           0.7070     2.2760     4.2750 oh         1 AE2      -0.661000
      5 C4          -0.7860     0.9620     2.9810 c6         1 AE2      -0.071400
      6 C5          -1.1420    -0.4290     2.4420 c6         1 AE2      -0.050700
      7 C6          -2.3960    -0.3670     1.5710 c6         1 AE2      -0.067400
      8 C7          -2.1360     0.3230     0.2390 c6         1 AE2      -0.071400
      9 C8          -0.9710    -0.3110    -0.5150 c6         1 AE2      -0.041700
     10 C9           0.2970    -0.3670     0.3690 c6         1 AE2      -0.046700
     11 C10          0.0370    -1.1100     1.7050 c6         1 AE2      -0.030000
     12 C11          1.5190    -0.8900    -0.4010 c6         1 AE2      -0.072400
     13 C12          1.7720    -0.1530    -1.7200 c6         1 AE2      -0.050400
     14 C13          0.5150    -0.1630    -2.5740 c5         1 AE2      -0.154000
     15 C14         -0.6410     0.4590    -1.7800 c5         1 AE2      -0.061700
     16 C15         -1.7220     0.7040    -2.8330 c5         1 AE2      -0.067400
     17 C16         -0.9090     1.2110    -4.0330 c5         1 AE2      -0.191400
     18 C17          0.5110     0.7090    -3.8110 c          1 AE2       0.580100
     19 O17          1.4630     0.9640    -4.5090 o          1 AE2      -0.513100
     20 C18          0.2070    -1.5800    -3.0950 c3         1 AE2      -0.078100
     21 C19         -0.2880    -2.5900     1.4650 c3         1 AE2      -0.085100
     22 H11          1.0220    -1.6920     3.5150 hc         1 AE2       0.040700
     23 H12          2.1190    -1.5470     2.1680 hc         1 AE2       0.040700
     24 H21          2.4930     0.2650     3.7900 hc         1 AE2       0.046200
     25 H22          1.9150     0.9650     2.2870 hc         1 AE2       0.046200
     26 H3           0.2330     0.3150     4.7410 h1         1 AE2       0.024700
     27 HO3          1.4860     2.2690     4.8390 ho         1 AE2       0.441000
     28 H41         -1.6390     1.3420     3.5510 hc         1 AE2       0.052700
     29 H42         -0.6230     1.6740     2.1660 hc         1 AE2       0.052700
     30 H5          -1.3760    -1.0550     3.3150 hc         1 AE2       0.043700
     31 H61         -2.7670    -1.3790     1.3860 hc         1 AE2       0.040700
     32 H62         -3.1930     0.1520     2.1130 hc         1 AE2       0.040700
     33 H71         -3.0390     0.2890    -0.3770 hc         1 AE2       0.040200
     34 H72         -1.9240     1.3860     0.4000 hc         1 AE2       0.040200
     35 H8          -1.2660    -1.3290    -0.7950 hc         1 AE2       0.050700
     36 H9           0.5230     0.6790     0.6150 hc         1 AE2       0.049700
     37 H111         2.4110    -0.7900     0.2230 hc         1 AE2       0.040200
     38 H112         1.4140    -1.9610    -0.5960 hc         1 AE2       0.040200
     39 H121         2.0550     0.8830    -1.5080 hc         1 AE2       0.050200
     40 H122         2.6150    -0.6080    -2.2460 hc         1 AE2       0.050200
     41 H14         -0.2900     1.4530    -1.4590 hc         1 AE2       0.048700
     42 H151        -2.2530    -0.2190    -3.0740 hc         1 AE2       0.048700
     43 H152        -2.4690     1.4280    -2.5080 hc         1 AE2       0.048700
     44 H161        -1.2860     0.8820    -5.0040 hc         1 AE2       0.071700
     45 H162        -0.8850     2.3040    -4.0640 hc         1 AE2       0.071700
     46 H181         0.0340    -2.2850    -2.2830 hc         1 AE2       0.039700
     47 H182        -0.6720    -1.6130    -3.7400 hc         1 AE2       0.039700
     48 H183         1.0520    -1.9520    -3.6760 hc         1 AE2       0.039700
     49 H191        -0.5800    -3.0700     2.4030 hc         1 AE2       0.033367
     50 H192        -1.0990    -2.7480     0.7550 hc         1 AE2       0.033367
     51 H193         0.5800    -3.1310     1.0850 hc         1 AE2       0.033367
@<TRIPOS>BOND
     1     1     2 1   
     2     1    11 1   
     3     1    22 1   
     4     1    23 1   
     5     2     3 1   
     6     2    24 1   
     7     2    25 1   
     8     3     4 1   
     9     3     5 1   
    10     3    26 1   
    11     4    27 1   
    12     5     6 1   
    13     5    28 1   
    14     5    29 1   
    15     6     7 1   
    16     6    11 1   
    17     6    30 1   
    18     7     8 1   
    19     7    31 1   
    20     7    32 1   
    21     8     9 1   
    22     8    33 1   
    23     8    34 1   
    24     9    10 1   
    25     9    15 1   
    26     9    35 1   
    27    10    11 1   
    28    10    12 1   
    29    10    36 1   
    30    11    21 1   
    31    12    13 1   
    32    12    37 1   
    33    12    38 1   
    34    13    14 1   
    35    13    39 1   
    36    13    40 1   
    37    14    15 1   
    38    14    18 1   
    39    14    20 1   
    40    15    16 1   
    41    15    41 1   
    42    16    17 1   
    43    16    42 1   
    44    16    43 1   
    45    17    18 1   
    46    17    44 1   
    47    17    45 1   
    48    18    19 2   
    49    20    46 1   
    50    20    47 1   
    51    20    48 1   
    52    21    49 1   
    53    21    50 1   
    54    21    51 1   
@<TRIPOS>SUBSTRUCTURE
     1 AE2         1 TEMP              0 ****  ****    0 ROOT
