@<TRIPOS>MOLECULE
AE3
   23    22     1     0     0
SMALL
bcc


@<TRIPOS>ATOM
      1 C1          -3.8200     1.2530    -0.4120 c3         1 AE3      -0.091100
      2 C2          -3.1320     0.2190     0.4500 c3         1 AE3       0.138400
      3 O2          -1.8930    -0.1220    -0.1270 os         1 AE3      -0.402600
      4 C3          -1.2000    -1.0950     0.6130 c3         1 AE3       0.139400
      5 C4           0.1090    -1.4180    -0.0610 c3         1 AE3       0.139400
      6 O3           0.9570    -0.3000    -0.0190 os         1 AE3      -0.387600
      7 C5           2.2050    -0.5430    -0.6160 c3         1 AE3       0.137400
      8 C6           3.0680     0.6900    -0.5260 c3         1 AE3       0.140400
      9 O4           3.3590     0.9640     0.8250 oh         1 AE3      -0.586800
     10 H1C1        -3.2200     2.1580    -0.5070 hc         1 AE3       0.042033
     11 H1C2        -4.0220     0.8670    -1.4120 hc         1 AE3       0.042033
     12 H1C3        -4.7730     1.5300     0.0380 hc         1 AE3       0.042033
     13 H2C1        -2.9870     0.6120     1.4660 h1         1 AE3       0.017200
     14 H2C2        -3.7680    -0.6720     0.5470 h1         1 AE3       0.017200
     15 H3C1        -1.0160    -0.7510     1.6410 h1         1 AE3       0.028200
     16 H3C2        -1.7830    -2.0230     0.6890 h1         1 AE3       0.028200
     17 H4C1         0.5570    -2.2750     0.4620 h1         1 AE3       0.026700
     18 H4C2        -0.0720    -1.7390    -1.0970 h1         1 AE3       0.026700
     19 H5C1         2.7120    -1.3910    -0.1330 h1         1 AE3       0.025700
     20 H5C2         2.0920    -0.8050    -1.6770 h1         1 AE3       0.025700
     21 H6C1         3.9770     0.4950    -1.1100 h1         1 AE3       0.025200
     22 H6C2         2.5530     1.5300    -1.0110 h1         1 AE3       0.025200
     23 H4           3.9020     1.7560     0.8590 ho         1 AE3       0.401000
@<TRIPOS>BOND
     1     1     2 1   
     2     1    10 1   
     3     1    11 1   
     4     1    12 1   
     5     2     3 1   
     6     2    13 1   
     7     2    14 1   
     8     3     4 1   
     9     4     5 1   
    10     4    15 1   
    11     4    16 1   
    12     5     6 1   
    13     5    17 1   
    14     5    18 1   
    15     6     7 1   
    16     7     8 1   
    17     7    19 1   
    18     7    20 1   
    19     8     9 1   
    20     8    21 1   
    21     8    22 1   
    22     9    23 1   
@<TRIPOS>SUBSTRUCTURE
     1 AE3         1 TEMP              0 ****  ****    0 ROOT
