@<TRIPOS>MOLECULE
AE3
   23    22     1     0     0
SMALL
No Charge or Current Charge


@<TRIPOS>ATOM
      1 C1          -3.8680     1.2460    -0.4630 c3         1 AE3      -0.091100
      2 C2          -3.2080     0.2340     0.4880 c3         1 AE3       0.161600
      3 O2          -1.9660    -0.1740    -0.1040 os         1 AE3      -0.449000
      4 C3          -1.2200    -1.1320     0.6750 c3         1 AE3       0.162600
      5 C4           0.0920    -1.4800    -0.0690 c3         1 AE3       0.162600
      6 O3           0.9900    -0.3550     0.0050 os         1 AE3      -0.434000
      7 C5           2.2510    -0.5530    -0.6670 c3         1 AE3       0.160600
      8 C6           3.1240     0.7210    -0.5060 c3         1 AE3       0.163600
      9 O4           3.5440     0.9110     0.8600 oh         1 AE3      -0.709000
     10 H1C1        -3.2230     2.1210    -0.6040 hc         1 AE3       0.042033
     11 H1C2        -4.0600     0.7890    -1.4400 hc         1 AE3       0.042033
     12 H1C3        -4.8240     1.5870    -0.0480 hc         1 AE3       0.042033
     13 H2C1        -3.0370     0.7070     1.4640 h1         1 AE3       0.017200
     14 H2C2        -3.8750    -0.6270     0.6280 h1         1 AE3       0.017200
     15 H3C1        -0.9830    -0.7320     1.6700 h1         1 AE3       0.028200
     16 H3C2        -1.8060    -2.0510     0.8080 h1         1 AE3       0.028200
     17 H4C1         0.5460    -2.3590     0.4080 h1         1 AE3       0.026700
     18 H4C2        -0.1350    -1.7370    -1.1120 h1         1 AE3       0.026700
     19 H5C1         2.7850    -1.4180    -0.2510 h1         1 AE3       0.025700
     20 H5C2         2.0870    -0.7370    -1.7370 h1         1 AE3       0.025700
     21 H6C1         4.0030     0.6230    -1.1560 h1         1 AE3       0.025200
     22 H6C2         2.5520     1.5910    -0.8580 h1         1 AE3       0.025200
     23 H4           4.0360     1.7650     0.8910 ho         1 AE3       0.500000
@<TRIPOS>BOND
     1     1     2 1   
     2     1    10 1   
     3     1    11 1   
     4     1    12 1   
     5     2     3 1   
     6     2    13 1   
     7     2    14 1   
     8     3     4 1   
     9     4     5 1   
    10     4    15 1   
    11     4    16 1   
    12     5     6 1   
    13     5    17 1   
    14     5    18 1   
    15     6     7 1   
    16     7     8 1   
    17     7    19 1   
    18     7    20 1   
    19     8     9 1   
    20     8    21 1   
    21     8    22 1   
    22     9    23 1   
@<TRIPOS>SUBSTRUCTURE
     1 AE3         1 TEMP              0 ****  ****    0 ROOT
