@<TRIPOS>MOLECULE
AE4
   44    43     1     0     0
SMALL
No Charge or Current Charge


@<TRIPOS>ATOM
      1 C2          -7.9470     1.0600    -0.5620 c3         1 AE4      -0.091100
      2 C3          -7.0370     0.9540     0.6720 c3         1 AE4       0.161600
      3 O4          -6.0470    -0.0480     0.3990 os         1 AE4      -0.450000
      4 C5          -5.1070    -0.2670     1.4710 c3         1 AE4       0.162600
      5 C6          -4.0960    -1.3580     1.0450 c3         1 AE4       0.162600
      6 O7          -3.2080    -0.8140     0.0480 os         1 AE4      -0.435000
      7 C8          -2.2190    -1.7420    -0.4400 c3         1 AE4       0.162600
      8 C9          -1.3310    -1.0300    -1.4890 c3         1 AE4       0.162600
      9 C11          0.4010     0.6540    -1.6910 c3         1 AE4       0.162600
     10 O10         -0.4730    -0.0870    -0.8170 os         1 AE4      -0.435000
     11 C12          1.2690     1.6150    -0.8440 c3         1 AE4       0.162600
     12 O13          2.2450     0.8460    -0.1140 os         1 AE4      -0.435000
     13 C14          3.1140     1.6310     0.7290 c3         1 AE4       0.162600
     14 C15          4.1130     0.6880     1.4420 c3         1 AE4       0.162600
     15 O16          5.0750     0.2060     0.4820 os         1 AE4      -0.434000
     16 C17          6.0580    -0.6980     1.0260 c3         1 AE4       0.160600
     17 C18          7.0340    -1.1320    -0.1010 c3         1 AE4       0.163600
     18 O19          7.8570    -0.0360    -0.5460 oh         1 AE4      -0.709000
     19 H2C1        -7.3670     1.3480    -1.4460 hc         1 AE4       0.042033
     20 H2C2        -8.4400     0.1020    -0.7610 hc         1 AE4       0.042033
     21 H2C3        -8.7210     1.8180    -0.3970 hc         1 AE4       0.042033
     22 H3C1        -6.5640     1.9260     0.8640 h1         1 AE4       0.016700
     23 H3C2        -7.6380     0.6790     1.5490 h1         1 AE4       0.016700
     24 H5C1        -4.5680     0.6570     1.7180 h1         1 AE4       0.028200
     25 H5C2        -5.6330    -0.6060     2.3730 h1         1 AE4       0.028200
     26 H6C1        -3.5250    -1.6760     1.9280 h1         1 AE4       0.026700
     27 H6C2        -4.6380    -2.2300     0.6570 h1         1 AE4       0.026700
     28 H8C1        -1.5910    -2.1170     0.3780 h1         1 AE4       0.027700
     29 H8C2        -2.7080    -2.6020    -0.9170 h1         1 AE4       0.027700
     30 H9C1        -0.7290    -1.7840    -2.0130 h1         1 AE4       0.028200
     31 H9C2        -1.9680    -0.5270    -2.2280 h1         1 AE4       0.028200
     32 H111         1.0510    -0.0200    -2.2640 h1         1 AE4       0.028200
     33 H112        -0.1890     1.2460    -2.4040 h1         1 AE4       0.028200
     34 H121         1.7700     2.3250    -1.5150 h1         1 AE4       0.027700
     35 H122         0.6250     2.1860    -0.1620 h1         1 AE4       0.027700
     36 H141         3.6660     2.3750     0.1410 h1         1 AE4       0.027700
     37 H142         2.5260     2.1630     1.4880 h1         1 AE4       0.027700
     38 H151         4.6200     1.2480     2.2390 h1         1 AE4       0.027200
     39 H152         3.5660    -0.1440     1.9050 h1         1 AE4       0.027200
     40 H171         6.6240    -0.2200     1.8370 h1         1 AE4       0.026200
     41 H172         5.5680    -1.5910     1.4340 h1         1 AE4       0.026200
     42 H181         7.6680    -1.9420     0.2840 h1         1 AE4       0.024200
     43 H182         6.4520    -1.5410    -0.9380 h1         1 AE4       0.024200
     44 H19          8.4000    -0.3730    -1.2970 ho         1 AE4       0.499000
@<TRIPOS>BOND
     1     1     2 1   
     2     1    19 1   
     3     1    20 1   
     4     1    21 1   
     5     2     3 1   
     6     2    22 1   
     7     2    23 1   
     8     3     4 1   
     9     4     5 1   
    10     4    24 1   
    11     4    25 1   
    12     5     6 1   
    13     5    26 1   
    14     5    27 1   
    15     6     7 1   
    16     7     8 1   
    17     7    28 1   
    18     7    29 1   
    19     8    10 1   
    20     8    30 1   
    21     8    31 1   
    22     9    10 1   
    23     9    11 1   
    24     9    32 1   
    25     9    33 1   
    26    11    12 1   
    27    11    34 1   
    28    11    35 1   
    29    12    13 1   
    30    13    14 1   
    31    13    36 1   
    32    13    37 1   
    33    14    15 1   
    34    14    38 1   
    35    14    39 1   
    36    15    16 1   
    37    16    17 1   
    38    16    40 1   
    39    16    41 1   
    40    17    18 1   
    41    17    42 1   
    42    17    43 1   
    43    18    44 1   
@<TRIPOS>SUBSTRUCTURE
     1 AE4         1 TEMP              0 ****  ****    0 ROOT
