@<TRIPOS>MOLECULE
AE4
   44    43     1     0     0
SMALL
bcc


@<TRIPOS>ATOM
      1 C2          -7.5160     1.2000    -0.0570 c3         1 AE4      -0.091100
      2 C3          -6.5750     0.7490     1.0380 c3         1 AE4       0.138400
      3 O4          -5.6250    -0.1410     0.4970 os         1 AE4      -0.403600
      4 C5          -4.6960    -0.5940     1.4470 c3         1 AE4       0.139400
      5 C6          -3.7300    -1.5510     0.7960 c3         1 AE4       0.139400
      6 O7          -2.9490    -0.8670    -0.1500 os         1 AE4      -0.388600
      7 C8          -2.0490    -1.7080    -0.8250 c3         1 AE4       0.139400
      8 C9          -1.2380    -0.9020    -1.8070 c3         1 AE4       0.139400
      9 C11          0.3880     0.7700    -1.9750 c3         1 AE4       0.139400
     10 O10         -0.4220     0.0080    -1.1170 os         1 AE4      -0.388600
     11 C12          1.2170     1.7370    -1.1690 c3         1 AE4       0.139400
     12 O13          2.1060     1.0270    -0.3450 os         1 AE4      -0.388600
     13 C14          2.9440     1.8690     0.4040 c3         1 AE4       0.139400
     14 C15          3.8170     1.0440     1.3130 c3         1 AE4       0.139400
     15 O16          4.6770     0.2400     0.5480 os         1 AE4      -0.387600
     16 C17          5.5350    -0.5430     1.3410 c3         1 AE4       0.137400
     17 C18          6.3790    -1.4320     0.4640 c3         1 AE4       0.140400
     18 O19          7.2330    -0.6410    -0.3290 oh         1 AE4      -0.586800
     19 H2C1        -6.9840     1.7350    -0.8450 hc         1 AE4       0.042033
     20 H2C2        -8.0380     0.3550    -0.5060 hc         1 AE4       0.042033
     21 H2C3        -8.2650     1.8750     0.3570 hc         1 AE4       0.042033
     22 H3C1        -6.0750     1.6190     1.4860 h1         1 AE4       0.016700
     23 H3C2        -7.1420     0.2630     1.8440 h1         1 AE4       0.016700
     24 H5C1        -4.1470     0.2470     1.8960 h1         1 AE4       0.028200
     25 H5C2        -5.1950    -1.1230     2.2710 h1         1 AE4       0.028200
     26 H6C1        -3.1030    -1.9960     1.5810 h1         1 AE4       0.026700
     27 H6C2        -4.2850    -2.3770     0.3280 h1         1 AE4       0.026700
     28 H8C1        -1.3790    -2.2190    -0.1180 h1         1 AE4       0.027700
     29 H8C2        -2.5800    -2.4920    -1.3820 h1         1 AE4       0.027700
     30 H9C1        -0.6360    -1.6010    -2.4050 h1         1 AE4       0.028200
     31 H9C2        -1.9070    -0.3810    -2.5070 h1         1 AE4       0.028200
     32 H111         1.0440     0.1240    -2.5760 h1         1 AE4       0.028200
     33 H112        -0.2210     1.3510    -2.6820 h1         1 AE4       0.028200
     34 H121         1.7590     2.3870    -1.8700 h1         1 AE4       0.027700
     35 H122         0.5620     2.3880    -0.5730 h1         1 AE4       0.027700
     36 H141         3.5670     2.4920    -0.2550 h1         1 AE4       0.027700
     37 H142         2.3580     2.5570     1.0300 h1         1 AE4       0.027700
     38 H151         4.3830     1.7310     1.9570 h1         1 AE4       0.027200
     39 H152         3.1910     0.4300     1.9770 h1         1 AE4       0.027200
     40 H171         6.1800     0.0920     1.9660 h1         1 AE4       0.026200
     41 H172         4.9630    -1.1850     2.0250 h1         1 AE4       0.026200
     42 H181         6.9390    -2.1050     1.1260 h1         1 AE4       0.024200
     43 H182         5.7220    -2.0640    -0.1480 h1         1 AE4       0.024200
     44 H19          7.7510    -1.2280    -0.8880 ho         1 AE4       0.400000
@<TRIPOS>BOND
     1     1     2 1   
     2     1    19 1   
     3     1    20 1   
     4     1    21 1   
     5     2     3 1   
     6     2    22 1   
     7     2    23 1   
     8     3     4 1   
     9     4     5 1   
    10     4    24 1   
    11     4    25 1   
    12     5     6 1   
    13     5    26 1   
    14     5    27 1   
    15     6     7 1   
    16     7     8 1   
    17     7    28 1   
    18     7    29 1   
    19     8    10 1   
    20     8    30 1   
    21     8    31 1   
    22     9    10 1   
    23     9    11 1   
    24     9    32 1   
    25     9    33 1   
    26    11    12 1   
    27    11    34 1   
    28    11    35 1   
    29    12    13 1   
    30    13    14 1   
    31    13    36 1   
    32    13    37 1   
    33    14    15 1   
    34    14    38 1   
    35    14    39 1   
    36    15    16 1   
    37    16    17 1   
    38    16    40 1   
    39    16    41 1   
    40    17    18 1   
    41    17    42 1   
    42    17    43 1   
    43    18    44 1   
@<TRIPOS>SUBSTRUCTURE
     1 AE4         1 TEMP              0 ****  ****    0 ROOT
