@<TRIPOS>MOLECULE
AE5
   27    26     1     0     0
SMALL
No Charge or Current Charge


@<TRIPOS>ATOM
      1 O01          4.2770     1.4890     1.4750 o          1 AE5      -0.781500
      2 C02          4.0800     1.2340     0.2960 c          1 AE5       0.710000
      3 O03          4.9820     1.0510    -0.5070 o          1 AE5      -0.781500
      4 C04          2.6280     1.0840    -0.1890 c3         1 AE5      -0.193400
      5 C05          2.1650    -0.3900    -0.0350 c3         1 AE5      -0.028400
      6 C06          0.7470    -0.6880    -0.6000 c3         1 AE5       0.029500
      7 N07         -0.3010     0.0330     0.2070 n7         1 AE5      -0.853400
      8 C08         -1.6720     0.0010    -0.3600 c3         1 AE5       0.136800
      9 C09         -2.6690     0.8840     0.4510 c3         1 AE5       0.030500
     10 N10         -2.6670     0.5430     1.9330 n8         1 AE5      -1.009200
     11 C11         -4.0740     0.8700    -0.2810 c          1 AE5       0.723000
     12 O12         -4.5010     1.9200    -0.7460 o          1 AE5      -0.763000
     13 O13         -4.7230    -0.1700    -0.2940 o          1 AE5      -0.763000
     14 C14          0.5250    -2.2520    -0.7190 c          1 AE5       0.696000
     15 O15          0.4690    -2.9220     0.3060 o          1 AE5      -0.768500
     16 O16          0.3640    -2.7370    -1.8320 o          1 AE5      -0.768500
     17 H2           1.9540     1.6850     0.4330 hc         1 AE5       0.022200
     18 H3           2.5590     1.3100    -1.2600 hc         1 AE5       0.022200
     19 H4           2.8830    -1.0310    -0.5620 hc         1 AE5       0.029200
     20 H5           2.2090    -0.6800     1.0220 hc         1 AE5       0.029200
     21 H6           0.7290    -0.2980    -1.6280 h1         1 AE5       0.030700
     22 H7          -0.3350    -0.4190     1.1260 hn         1 AE5       0.394000
     23 H9          -1.6570     0.3680    -1.3960 h1         1 AE5       0.028200
     24 H10         -2.0460    -1.0320    -0.3860 h1         1 AE5       0.028200
     25 H11         -2.3040     1.9180     0.3750 h1         1 AE5       0.046700
     26 H12         -2.9740    -0.4300     2.0450 hn         1 AE5       0.377500
     27 H13         -1.6970     0.5440     2.2630 hn         1 AE5       0.377500
@<TRIPOS>BOND
     1     1     2 1   
     2     2     3 1   
     3     2     4 1   
     4     4     5 1   
     5     4    17 1   
     6     4    18 1   
     7     5     6 1   
     8     5    19 1   
     9     5    20 1   
    10     6     7 1   
    11     6    14 1   
    12     6    21 1   
    13     7     8 1   
    14     7    22 1   
    15     8     9 1   
    16     8    23 1   
    17     8    24 1   
    18     9    10 1   
    19     9    11 1   
    20     9    25 1   
    21    10    26 1   
    22    10    27 1   
    23    11    12 1   
    24    11    13 1   
    25    14    15 1   
    26    14    16 1   
@<TRIPOS>SUBSTRUCTURE
     1 AE5         1 TEMP              0 ****  ****    0 ROOT
