@<TRIPOS>MOLECULE
AE5
   27    26     1     0     0
SMALL
abcg2


@<TRIPOS>ATOM
      1 O01          4.5770     0.6770     0.7670 o          1 AE5      -0.781500
      2 C02          3.8730     1.4520     0.0890 c          1 AE5       0.710000
      3 O03          4.2000     2.6000    -0.2850 o          1 AE5      -0.781500
      4 C04          2.4700     0.9810    -0.3250 c3         1 AE5      -0.193400
      5 C05          2.1450    -0.4790    -0.0610 c3         1 AE5      -0.028400
      6 C06          0.7170    -0.8540    -0.4780 c3         1 AE5       0.029500
      7 N07         -0.2470    -0.1050     0.3110 n7         1 AE5      -0.853400
      8 C08         -1.5560    -0.0080    -0.3050 c3         1 AE5       0.136800
      9 C09         -2.4870     0.9300     0.4750 c3         1 AE5       0.030500
     10 N10         -2.7400     0.5300     1.8500 n8         1 AE5      -1.009200
     11 C11         -3.8040     1.0800    -0.3160 c          1 AE5       0.723000
     12 O12         -3.7220     1.6980    -1.3980 o          1 AE5      -0.763000
     13 O13         -4.8280     0.5510     0.1580 o          1 AE5      -0.763000
     14 C14          0.5450    -2.3900    -0.4000 c          1 AE5       0.696000
     15 O15         -0.0920    -2.8470     0.5720 o          1 AE5      -0.768500
     16 O16          1.0950    -3.0570    -1.3020 o          1 AE5      -0.768500
     17 H2           1.7310     1.6090     0.1840 hc         1 AE5       0.022200
     18 H3           2.3350     1.1980    -1.3910 hc         1 AE5       0.022200
     19 H4           2.8470    -1.1170    -0.6020 hc         1 AE5       0.029200
     20 H5           2.2810    -0.7090     1.0010 hc         1 AE5       0.029200
     21 H6           0.5950    -0.5550    -1.5260 h1         1 AE5       0.030700
     22 H7          -0.3460    -0.6150     1.1830 hn         1 AE5       0.394000
     23 H9          -1.4280     0.4000    -1.3110 h1         1 AE5       0.028200
     24 H10         -2.0510    -0.9880    -0.4230 h1         1 AE5       0.028200
     25 H11         -1.9950     1.9100     0.5000 h1         1 AE5       0.046700
     26 H12         -3.2960    -0.3150     1.8530 hn         1 AE5       0.377500
     27 H13         -1.8690     0.3100     2.3180 hn         1 AE5       0.377500
@<TRIPOS>BOND
     1     1     2 1   
     2     2     3 1   
     3     2     4 1   
     4     4     5 1   
     5     4    17 1   
     6     4    18 1   
     7     5     6 1   
     8     5    19 1   
     9     5    20 1   
    10     6     7 1   
    11     6    14 1   
    12     6    21 1   
    13     7     8 1   
    14     7    22 1   
    15     8     9 1   
    16     8    23 1   
    17     8    24 1   
    18     9    10 1   
    19     9    11 1   
    20     9    25 1   
    21    10    26 1   
    22    10    27 1   
    23    11    12 1   
    24    11    13 1   
    25    14    15 1   
    26    14    16 1   
@<TRIPOS>SUBSTRUCTURE
     1 AE5         1 TEMP              0 ****  ****    0 ROOT
