@<TRIPOS>MOLECULE
AE6
   48    52     1     0     0
SMALL
No Charge or Current Charge


@<TRIPOS>ATOM
      1 O3          -9.2190     1.2510     2.1890 o          1 AE6      -0.532000
      2 C21         -8.2870     0.7350     1.5960 c          1 AE6       0.566200
      3 N3          -6.9940     1.1280     1.8030 ns         1 AE6      -0.454400
      4 C18         -5.8770     0.6060     1.1820 ca         1 AE6       0.505900
      5 N2          -4.7190     1.1630     1.5570 nb         1 AE6      -0.722000
      6 C17         -3.6000     0.6760     0.9690 ca         1 AE6       0.415900
      7 C22         -8.4380    -0.3530     0.6060 cc         1 AE6      -0.289200
      8 C23         -7.3570    -0.9170    -0.0500 cd         1 AE6      -0.078200
      9 C19         -6.0100    -0.4220     0.2450 ca         1 AE6      -0.181800
     10 C20         -4.8500    -0.9240    -0.3630 ca         1 AE6       0.003000
     11 C16         -3.6090    -0.3630     0.0050 ca         1 AE6      -0.164800
     12 C15         -2.3530    -0.8740    -0.6220 ce         1 AE6      -0.078200
     13 C14         -1.0650    -0.4690    -0.4050 cf         1 AE6      -0.286200
     14 C13          0.1320    -1.0400    -1.0810 c          1 AE6       0.620300
     15 O2          -0.0540    -1.9430    -1.8950 o          1 AE6      -0.609100
     16 N1           1.3180    -0.3890    -0.6210 nj         1 AE6      -0.424800
     17 C11          2.1950    -1.5710    -0.3260 cy         1 AE6       0.115500
     18 C12          2.0450    -0.1510    -1.9130 cy         1 AE6       0.115500
     19 C10          3.2470    -0.9400    -1.2960 cy         1 AE6      -0.040500
     20 C7           4.4270    -0.1920    -0.7370 cc         1 AE6       0.025900
     21 O1           4.2360     0.8250     0.1970 os         1 AE6      -0.171200
     22 C4           5.5110     1.2670     0.4720 ca         1 AE6       0.067100
     23 C3           5.8480     2.2940     1.3640 ca         1 AE6      -0.106000
     24 C2           7.2140     2.6160     1.5220 ca         1 AE6      -0.088000
     25 C8           5.7710    -0.3690    -1.0270 cd         1 AE6      -0.108400
     26 C9           6.3800    -1.3650    -1.9840 c3         1 AE6      -0.022900
     27 C5           6.4760     0.5910    -0.2310 ca         1 AE6      -0.117800
     28 C6           7.8410     0.8830    -0.1000 ca         1 AE6      -0.058000
     29 C1           8.2050     1.9140     0.7930 ca         1 AE6      -0.132000
     30 H1          -6.8300     1.8670     2.4680 hn         1 AE6       0.343500
     31 H2          -2.6680     1.1400     1.2850 h4         1 AE6       0.025100
     32 H3          -9.4560    -0.6810     0.4260 ha         1 AE6       0.213000
     33 H4          -7.5110    -1.7160    -0.7730 ha         1 AE6       0.193000
     34 H5          -4.9100    -1.7240    -1.0980 ha         1 AE6       0.129000
     35 H6          -2.5160    -1.6760    -1.3460 ha         1 AE6       0.199000
     36 H7          -0.8610     0.3260     0.3080 ha         1 AE6       0.178000
     37 H8           2.5230    -1.6040     0.7190 h1         1 AE6       0.062700
     38 H9           1.8450    -2.5640    -0.6350 h1         1 AE6       0.062700
     39 H10          1.6390    -0.6020    -2.8260 h1         1 AE6       0.062700
     40 H11          2.2590     0.9090    -2.0880 h1         1 AE6       0.062700
     41 H12          3.6690    -1.6720    -1.9910 hc         1 AE6       0.081700
     42 H13          5.0770     2.8250     1.9170 ha         1 AE6       0.132000
     43 H14          7.5060     3.4090     2.2080 ha         1 AE6       0.117000
     44 H15          7.4710    -1.2800    -2.0180 hc         1 AE6       0.044367
     45 H16          6.1370    -2.3920    -1.6860 hc         1 AE6       0.044367
     46 H17          6.0030    -1.2110    -3.0020 hc         1 AE6       0.044367
     47 H18          8.5950     0.3390    -0.6630 ha         1 AE6       0.119000
     48 H19          9.2540     2.1700     0.9230 ha         1 AE6       0.116000
@<TRIPOS>BOND
     1     1     2 2   
     2     2     3 1   
     3     2     7 1   
     4     3     4 1   
     5     3    30 1   
     6     4     5 ar  
     7     4     9 ar  
     8     5     6 ar  
     9     6    11 ar  
    10     6    31 1   
    11     7     8 2   
    12     7    32 1   
    13     8     9 1   
    14     8    33 1   
    15     9    10 ar  
    16    10    11 ar  
    17    10    34 1   
    18    11    12 1   
    19    12    13 2   
    20    12    35 1   
    21    13    14 1   
    22    13    36 1   
    23    14    15 2   
    24    14    16 1   
    25    16    17 1   
    26    16    18 1   
    27    17    19 1   
    28    17    37 1   
    29    17    38 1   
    30    18    19 1   
    31    18    39 1   
    32    18    40 1   
    33    19    20 1   
    34    19    41 1   
    35    20    21 1   
    36    20    25 2   
    37    21    22 1   
    38    22    23 ar  
    39    22    27 ar  
    40    23    24 ar  
    41    23    42 1   
    42    24    29 ar  
    43    24    43 1   
    44    25    26 1   
    45    25    27 1   
    46    26    44 1   
    47    26    45 1   
    48    26    46 1   
    49    27    28 ar  
    50    28    29 ar  
    51    28    47 1   
    52    29    48 1   
@<TRIPOS>SUBSTRUCTURE
     1 AE6         1 TEMP              0 ****  ****    0 ROOT
