@<TRIPOS>MOLECULE
AE6
   48    52     1     0     0
SMALL
abcg2


@<TRIPOS>ATOM
      1 O3          -8.9340     2.1960     0.6200 o          1 AE6      -0.532000
      2 C21         -8.0080     1.4000     0.5980 c          1 AE6       0.566200
      3 N3          -6.7200     1.8180     0.3500 ns         1 AE6      -0.454400
      4 C18         -5.6220     1.0140     0.3030 ca         1 AE6       0.505900
      5 N2          -4.4520     1.5930     0.0490 nb         1 AE6      -0.722000
      6 C17         -3.3840     0.8270     0.0000 ca         1 AE6       0.415900
      7 C22         -8.1490    -0.0320     0.8240 cc         1 AE6      -0.289200
      8 C23         -7.0900    -0.8620     0.7880 cd         1 AE6      -0.078200
      9 C19         -5.7740    -0.3630     0.5240 ca         1 AE6      -0.181800
     10 C20         -4.6260    -1.1460     0.4700 ca         1 AE6       0.003000
     11 C16         -3.3950    -0.5640     0.2000 ca         1 AE6      -0.164800
     12 C15         -2.1980    -1.3910     0.1400 ce         1 AE6      -0.078200
     13 C14         -0.9690    -1.0000    -0.2090 cf         1 AE6      -0.286200
     14 C13          0.1530    -1.9630    -0.2180 c          1 AE6       0.620300
     15 O2           0.0500    -3.1280     0.1590 o          1 AE6      -0.609100
     16 N1           1.3130    -1.4760    -0.6690 nj         1 AE6      -0.424800
     17 C11          2.5880    -2.1450    -0.8300 cy         1 AE6       0.115500
     18 C12          1.7430    -0.2090    -1.2390 cy         1 AE6       0.115500
     19 C10          3.1300    -0.8550    -1.5060 cy         1 AE6      -0.040500
     20 C7           4.3060    -0.2070    -0.8980 cc         1 AE6       0.025900
     21 O1           4.2320     0.0390     0.4450 os         1 AE6      -0.171200
     22 C4           5.3920     0.6300     0.8030 ca         1 AE6       0.067100
     23 C3           5.7450     1.0510     2.0720 ca         1 AE6      -0.106000
     24 C2           6.9960     1.6370     2.2000 ca         1 AE6      -0.088000
     25 C8           5.4840     0.2080    -1.4190 cd         1 AE6      -0.108400
     26 C9           5.9610     0.1260    -2.8270 c3         1 AE6      -0.022900
     27 C5           6.2190     0.7650    -0.3120 ca         1 AE6      -0.117800
     28 C6           7.4740     1.3560    -0.1630 ca         1 AE6      -0.058000
     29 C1           7.8480     1.7870     1.0990 ca         1 AE6      -0.132000
     30 H1          -6.5720     2.8070     0.1910 hn         1 AE6       0.343500
     31 H2          -2.4520     1.3400    -0.2070 h4         1 AE6       0.025100
     32 H3          -9.1460    -0.4010     1.0220 ha         1 AE6       0.213000
     33 H4          -7.2210    -1.9240     0.9560 ha         1 AE6       0.193000
     34 H5          -4.7010    -2.2150     0.6340 ha         1 AE6       0.129000
     35 H6          -2.3460    -2.4340     0.4030 ha         1 AE6       0.199000
     36 H7          -0.7630     0.0250    -0.4950 ha         1 AE6       0.178000
     37 H8           3.0650    -2.4190     0.1140 h1         1 AE6       0.062700
     38 H9           2.5580    -3.0210    -1.4800 h1         1 AE6       0.062700
     39 H10          1.2050     0.0890    -2.1390 h1         1 AE6       0.062700
     40 H11          1.7420     0.6220    -0.5300 h1         1 AE6       0.062700
     41 H12          3.3120    -1.0000    -2.5690 hc         1 AE6       0.081700
     42 H13          5.0830     0.9320     2.9200 ha         1 AE6       0.132000
     43 H14          7.3210     1.9820     3.1730 ha         1 AE6       0.117000
     44 H15          6.2270     1.1120    -3.2090 hc         1 AE6       0.044367
     45 H16          6.8520    -0.5010    -2.9020 hc         1 AE6       0.044367
     46 H17          5.2060    -0.2920    -3.4900 hc         1 AE6       0.044367
     47 H18          8.1390     1.4730    -1.0080 ha         1 AE6       0.119000
     48 H19          8.8160     2.2510     1.2420 ha         1 AE6       0.116000
@<TRIPOS>BOND
     1     1     2 2   
     2     2     3 1   
     3     2     7 1   
     4     3     4 1   
     5     3    30 1   
     6     4     5 ar  
     7     4     9 ar  
     8     5     6 ar  
     9     6    11 ar  
    10     6    31 1   
    11     7     8 2   
    12     7    32 1   
    13     8     9 1   
    14     8    33 1   
    15     9    10 ar  
    16    10    11 ar  
    17    10    34 1   
    18    11    12 1   
    19    12    13 2   
    20    12    35 1   
    21    13    14 1   
    22    13    36 1   
    23    14    15 2   
    24    14    16 1   
    25    16    17 1   
    26    16    18 1   
    27    17    19 1   
    28    17    37 1   
    29    17    38 1   
    30    18    19 1   
    31    18    39 1   
    32    18    40 1   
    33    19    20 1   
    34    19    41 1   
    35    20    21 1   
    36    20    25 2   
    37    21    22 1   
    38    22    23 ar  
    39    22    27 ar  
    40    23    24 ar  
    41    23    42 1   
    42    24    29 ar  
    43    24    43 1   
    44    25    26 1   
    45    25    27 1   
    46    26    44 1   
    47    26    45 1   
    48    26    46 1   
    49    27    28 ar  
    50    28    29 ar  
    51    28    47 1   
    52    29    48 1   
@<TRIPOS>SUBSTRUCTURE
     1 AE6         1 TEMP              0 ****  ****    0 ROOT
