@<TRIPOS>MOLECULE
AE7
   41    45     1     0     0
SMALL
abcg2


@<TRIPOS>ATOM
      1 NAL         -2.8510    -0.4040     0.7690 nu         1 AE7      -0.804000
      2 CAW         -4.0700     0.0540     0.3690 ca         1 AE7       0.338000
      3 CAJ         -5.1720     0.3810     1.1620 ca         1 AE7      -0.168000
      4 CAF         -6.3330     0.8170     0.5470 ca         1 AE7      -0.029000
      5 CAG         -6.4330     0.9510    -0.8390 ca         1 AE7      -0.168000
      6 CAK         -5.3440     0.6410    -1.6400 ca         1 AE7      -0.003000
      7 CAX         -4.1880     0.2120    -1.0180 ca         1 AE7      -0.006500
      8 SAO         -2.6930    -0.3260    -1.7890 sx         1 AE7       0.006500
      9 CAU         -1.8300    -0.0780    -0.2290 c2         1 AE7      -0.277100
     10 NAZ         -0.6820    -0.8740    -0.1320 na         1 AE7       0.110900
     11 CAS          0.5420    -0.3160    -0.0140 cc         1 AE7       0.162100
     12 OAC          0.6780     0.9930     0.0240 oh         1 AE7      -0.497100
     13 NAM         -0.6140    -2.2330    -0.1640 nc         1 AE7      -0.550800
     14 CAQ          0.6610    -2.5130    -0.0530 cd         1 AE7       0.324300
     15 CAA          1.1490    -3.9190    -0.0340 c3         1 AE7      -0.130400
     16 CAV          1.4610    -1.3400     0.0420 cd         1 AE7      -0.297300
     17 CAY          2.9270    -1.2460     0.1960 c5         1 AE7       0.322900
     18 OAN          3.3010    -1.0530     1.5860 os         1 AE7      -0.428100
     19 CAP          4.0570     0.0400     1.7540 c          1 AE7       0.674700
     20 OAB          4.4730     0.3750     2.8320 o          1 AE7      -0.495000
     21 CAR          4.2410     0.6750     0.4430 ca         1 AE7      -0.187600
     22 CAT          3.5660    -0.0780    -0.4940 ca         1 AE7      -0.087300
     23 CAI          3.5550     0.2910    -1.8270 ca         1 AE7      -0.087000
     24 CAE          4.2490     1.4410    -2.1810 ca         1 AE7      -0.087000
     25 CAD          4.9330     2.2020    -1.2300 ca         1 AE7      -0.123000
     26 CAH          4.9360     1.8260     0.1040 ca         1 AE7      -0.034000
     27 H1          -5.1160     0.2950     2.2400 ha         1 AE7       0.128000
     28 H2          -7.1850     1.0710     1.1640 ha         1 AE7       0.118000
     29 H3          -7.3530     1.2980    -1.2880 ha         1 AE7       0.122000
     30 H5          -5.3950     0.7340    -2.7160 ha         1 AE7       0.121000
     31 H8           1.9210    -4.0840    -0.7870 hc         1 AE7       0.051033
     32 H9           1.5820    -4.1750     0.9340 hc         1 AE7       0.051033
     33 H10          0.3320    -4.6120    -0.2300 hc         1 AE7       0.051033
     34 H11          3.3940    -2.1820    -0.1250 h1         1 AE7       0.082700
     35 H12          3.0200    -0.2860    -2.5700 ha         1 AE7       0.123000
     36 H13          4.2600     1.7560    -3.2160 ha         1 AE7       0.113000
     37 H14          5.4600     3.0930    -1.5410 ha         1 AE7       0.117000
     38 H15          5.4600     2.4090     0.8510 ha         1 AE7       0.134000
     39 H16         -2.5780    -0.1790     1.7160 hn         1 AE7       0.489000
     40 H18         -3.0150    -1.6560    -1.8940 hs         1 AE7       0.311000
     41 H6          -0.2390     1.3430    -0.0820 ho         1 AE7       0.509000
@<TRIPOS>BOND
     1     1     2 1   
     2     1     9 1   
     3     1    39 1   
     4     2     3 ar  
     5     2     7 ar  
     6     3     4 ar  
     7     3    27 1   
     8     4     5 ar  
     9     4    28 1   
    10     5     6 ar  
    11     5    29 1   
    12     6     7 ar  
    13     6    30 1   
    14     7     8 1   
    15     8     9 2   
    16     8    40 1   
    17     9    10 1   
    18    10    11 1   
    19    10    13 1   
    20    11    12 1   
    21    11    16 2   
    22    12    41 1   
    23    13    14 2   
    24    14    15 1   
    25    14    16 1   
    26    15    31 1   
    27    15    32 1   
    28    15    33 1   
    29    16    17 1   
    30    17    18 1   
    31    17    22 1   
    32    17    34 1   
    33    18    19 1   
    34    19    20 2   
    35    19    21 1   
    36    21    22 ar  
    37    21    26 ar  
    38    22    23 ar  
    39    23    24 ar  
    40    23    35 1   
    41    24    25 ar  
    42    24    36 1   
    43    25    26 ar  
    44    25    37 1   
    45    26    38 1   
@<TRIPOS>SUBSTRUCTURE
     1 AE7         1 TEMP              0 ****  ****    0 ROOT
