@<TRIPOS>MOLECULE
AE7
   41    45     1     0     0
SMALL
No Charge or Current Charge


@<TRIPOS>ATOM
      1 NAL         -2.5330     0.5690     0.2980 nu         1 AE7      -0.804000
      2 CAW         -3.9230     0.5360     0.1950 ca         1 AE7       0.338000
      3 CAJ         -4.8230     0.8240     1.2270 ca         1 AE7      -0.168000
      4 CAF         -6.2060     0.7330     0.9690 ca         1 AE7      -0.029000
      5 CAG         -6.6680     0.3490    -0.3100 ca         1 AE7      -0.168000
      6 CAK         -5.7540     0.0490    -1.3410 ca         1 AE7      -0.003000
      7 CAX         -4.3820     0.1450    -1.0680 ca         1 AE7      -0.006500
      8 SAO         -3.0320    -0.2260    -2.2520 sx         1 AE7       0.006500
      9 CAU         -1.7560     0.2230    -0.8090 c2         1 AE7      -0.277100
     10 NAZ         -0.6030    -0.5760    -0.5920 na         1 AE7       0.110900
     11 CAS          0.5490    -0.1920     0.0880 cc         1 AE7       0.162100
     12 OAC          0.7090     1.0430     0.6000 oh         1 AE7      -0.497100
     13 NAM         -0.5380    -1.8670    -1.0740 nc         1 AE7      -0.550800
     14 CAQ          0.6590    -2.2680    -0.6750 cd         1 AE7       0.324300
     15 CAA          1.1560    -3.6480    -1.0020 c3         1 AE7      -0.130400
     16 CAV          1.3670    -1.2810     0.0440 cd         1 AE7      -0.297300
     17 CAY          2.7500    -1.2730     0.6640 c5         1 AE7       0.322900
     18 OAN          2.7360    -0.7260     2.0210 os         1 AE7      -0.428100
     19 CAP          3.4620     0.4470     2.0460 c          1 AE7       0.674700
     20 OAB          3.6790     1.1150     3.0470 o          1 AE7      -0.495000
     21 CAR          4.0020     0.7090     0.6900 ca         1 AE7      -0.187600
     22 CAT          3.5770    -0.2970    -0.1400 ca         1 AE7      -0.087300
     23 CAI          3.9310    -0.3150    -1.4980 ca         1 AE7      -0.087000
     24 CAE          4.7340     0.7350    -1.9930 ca         1 AE7      -0.087000
     25 CAD          5.1670     1.7710    -1.1320 ca         1 AE7      -0.123000
     26 CAH          4.8000     1.7670     0.2300 ca         1 AE7      -0.034000
     27 H1          -4.4620     1.1180     2.2080 ha         1 AE7       0.128000
     28 H2          -6.9210     0.9580     1.7580 ha         1 AE7       0.118000
     29 H3          -7.7370     0.2800    -0.5000 ha         1 AE7       0.122000
     30 H5          -6.1040    -0.2540    -2.3250 ha         1 AE7       0.121000
     31 H8           2.1050    -3.5990    -1.5470 hc         1 AE7       0.051033
     32 H9           1.3220    -4.2270    -0.0860 hc         1 AE7       0.051033
     33 H10          0.4400    -4.2010    -1.6220 hc         1 AE7       0.051033
     34 H11          3.1900    -2.2800     0.6690 h1         1 AE7       0.082700
     35 H12          3.5940    -1.1160    -2.1530 ha         1 AE7       0.123000
     36 H13          5.0220     0.7460    -3.0420 ha         1 AE7       0.113000
     37 H14          5.7850     2.5770    -1.5230 ha         1 AE7       0.117000
     38 H15          5.1250     2.5600     0.9010 ha         1 AE7       0.134000
     39 H16         -2.1540     0.5030     1.2490 hn         1 AE7       0.489000
     40 H18         -3.0840    -1.5880    -1.9330 hs         1 AE7       0.311000
     41 H6          -0.1150     1.5200     0.3540 ho         1 AE7       0.509000
@<TRIPOS>BOND
     1     1     2 1   
     2     1     9 1   
     3     1    39 1   
     4     2     3 ar  
     5     2     7 ar  
     6     3     4 ar  
     7     3    27 1   
     8     4     5 ar  
     9     4    28 1   
    10     5     6 ar  
    11     5    29 1   
    12     6     7 ar  
    13     6    30 1   
    14     7     8 1   
    15     8     9 2   
    16     8    40 1   
    17     9    10 1   
    18    10    11 1   
    19    10    13 1   
    20    11    12 1   
    21    11    16 2   
    22    12    41 1   
    23    13    14 2   
    24    14    15 1   
    25    14    16 1   
    26    15    31 1   
    27    15    32 1   
    28    15    33 1   
    29    16    17 1   
    30    17    18 1   
    31    17    22 1   
    32    17    34 1   
    33    18    19 1   
    34    19    20 2   
    35    19    21 1   
    36    21    22 ar  
    37    21    26 ar  
    38    22    23 ar  
    39    23    24 ar  
    40    23    35 1   
    41    24    25 ar  
    42    24    36 1   
    43    25    26 ar  
    44    25    37 1   
    45    26    38 1   
@<TRIPOS>SUBSTRUCTURE
     1 AE7         1 TEMP              0 ****  ****    0 ROOT
