@<TRIPOS>MOLECULE
AE8
   60    65     1     0     0
SMALL
abcg2


@<TRIPOS>ATOM
      1 C13         -4.9310     0.1900     0.0050 ca         1 AE8      -0.145000
      2 C20         -7.1870    -1.3030     0.0220 ca         1 AE8       0.346900
      3 C28          2.6730     2.5620    -0.2840 ca         1 AE8       0.264900
      4 C25          3.5610     0.3910    -0.7880 ca         1 AE8      -0.190300
      5 C24          4.6820     0.8400    -0.1110 ca         1 AE8       0.047600
      6 C14         -6.1540     0.8440    -0.0280 ca         1 AE8       0.093100
      7 C19         -7.3210     0.0760    -0.0110 ca         1 AE8      -0.010900
      8 C26          2.5400     1.2960    -0.8850 ca         1 AE8       0.226000
      9 C30          4.7720     2.0910     0.4740 ca         1 AE8       0.296800
     10 C12         -4.9050    -1.1970     0.0420 ca         1 AE8       0.340300
     11 C31          6.0040     2.3740     1.1490 cc         1 AE8      -0.184800
     12 C32          6.9900     1.4480     1.1640 cd         1 AE8      -0.293200
     13 C33          6.8910     0.1460     0.5000 c          1 AE8       0.567200
     14 C6          -0.2400    -1.0550     1.4330 c6         1 AE8      -0.078900
     15 C8          -0.6660    -1.8140    -0.8820 c6         1 AE8      -0.078900
     16 C22          5.3180    -1.2270    -0.9270 c5         1 AE8       0.057000
     17 C5           1.1610    -1.6310     1.3310 c6         1 AE8       0.180800
     18 C9           0.7540    -2.3570    -0.9190 c6         1 AE8       0.180800
     19 C16         -7.4600     2.7420    -0.3780 c6         1 AE8       0.117600
     20 C17         -8.5480     2.0030     0.3630 c6         1 AE8       0.115600
     21 C7          -1.2150    -1.8120     0.5400 c6         1 AE8       0.180500
     22 C2           3.7840    -1.0560    -1.1730 c5         1 AE8       0.239300
     23 C11         -3.6030    -1.9550     0.0410 c3         1 AE8       0.112500
     24 N29          3.7430     2.9430     0.3800 nb         1 AE8      -0.593000
     25 N21         -6.0180    -1.9270     0.0440 nb         1 AE8      -0.674000
     26 N23          5.6800    -0.0830    -0.0970 n          1 AE8      -0.275000
     27 N4           1.6310    -1.6050    -0.0410 n3         1 AE8      -0.741600
     28 N10         -2.5240    -1.1830     0.6160 n7         1 AE8      -0.872400
     29 O15         -6.1840     2.1850    -0.0750 os         1 AE8      -0.323100
     30 O18         -8.5540     0.6330    -0.0140 os         1 AE8      -0.320100
     31 O1           3.4010    -1.3930    -2.4700 oh         1 AE8      -0.628000
     32 F27          1.4230     1.0390    -1.5570 f          1 AE8      -0.140000
     33 H13         -4.0100     0.7580    -0.0020 ha         1 AE8       0.155000
     34 H20         -8.0810    -1.9200     0.0340 h4         1 AE8       0.031100
     35 H28          1.8530     3.2680    -0.3630 h4         1 AE8       0.042100
     36 H31          6.1350     3.3300     1.6390 ha         1 AE8       0.207000
     37 H111        -3.7680    -2.9220     0.5390 h1         1 AE8       0.052200
     38 H112        -3.3510    -2.1950    -0.9960 h1         1 AE8       0.052200
     39 H32          7.9260     1.6530     1.6660 ha         1 AE8       0.213000
     40 H61C        -0.5690    -1.0930     2.4750 hc         1 AE8       0.055700
     41 H62C        -0.2220    -0.0030     1.1300 hc         1 AE8       0.055700
     42 H51C         1.8410    -1.0400     1.9480 h1         1 AE8       0.034450
     43 H52C         1.1630    -2.6550     1.7460 h1         1 AE8       0.034450
     44 H7          -1.2520    -2.8600     0.8920 h1         1 AE8       0.017700
     45 H81C        -0.6760    -0.7900    -1.2650 hc         1 AE8       0.055700
     46 H82C        -1.2830    -2.4210    -1.5480 hc         1 AE8       0.055700
     47 H91C         0.7410    -3.4280    -0.6430 h1         1 AE8       0.034450
     48 H92C         1.1330    -2.3020    -1.9380 h1         1 AE8       0.034450
     49 H221         5.5540    -2.1660    -0.4270 h1         1 AE8       0.075200
     50 H222         5.8750    -1.1920    -1.8660 h1         1 AE8       0.075200
     51 H161        -7.6330     2.6990    -1.4570 h1         1 AE8       0.070700
     52 H162        -7.4320     3.7870    -0.0740 h1         1 AE8       0.070700
     53 H171        -8.4060     2.0950     1.4460 h1         1 AE8       0.068700
     54 H172        -9.5230     2.4130     0.1070 h1         1 AE8       0.068700
     55 H10         -2.7410    -1.0080     1.5910 hn         1 AE8       0.413000
     56 H1           3.8320    -0.8000    -3.0960 ho         1 AE8       0.454000
     57 C3           3.0240    -1.9450    -0.1760 c3         1 AE8       0.198800
     58 O34          7.7910    -0.6810     0.4600 o          1 AE8      -0.537000
     59 H31C         3.1870    -2.9960    -0.4620 h1         1 AE8       0.047200
     60 H32C         3.5170    -1.8210     0.7920 h1         1 AE8       0.047200
@<TRIPOS>BOND
     1     1     6 ar  
     2     1    10 ar  
     3     1    33 1   
     4     2     7 ar  
     5     2    25 ar  
     6     2    34 1   
     7     3     8 ar  
     8     3    24 ar  
     9     3    35 1   
    10     4     5 ar  
    11     4     8 ar  
    12     4    22 1   
    13     5     9 ar  
    14     5    26 1   
    15     6     7 ar  
    16     6    29 1   
    17     7    30 1   
    18     8    32 1   
    19     9    11 1   
    20     9    24 ar  
    21    10    23 1   
    22    10    25 ar  
    23    11    12 2   
    24    11    36 1   
    25    12    13 1   
    26    12    39 1   
    27    13    26 1   
    28    13    58 2   
    29    14    17 1   
    30    14    21 1   
    31    14    40 1   
    32    14    41 1   
    33    15    18 1   
    34    15    21 1   
    35    15    45 1   
    36    15    46 1   
    37    16    22 1   
    38    16    26 1   
    39    16    49 1   
    40    16    50 1   
    41    17    27 1   
    42    17    42 1   
    43    17    43 1   
    44    18    27 1   
    45    18    47 1   
    46    18    48 1   
    47    19    20 1   
    48    19    29 1   
    49    19    51 1   
    50    19    52 1   
    51    20    30 1   
    52    20    53 1   
    53    20    54 1   
    54    21    28 1   
    55    21    44 1   
    56    22    31 1   
    57    22    57 1   
    58    23    28 1   
    59    23    37 1   
    60    23    38 1   
    61    27    57 1   
    62    28    55 1   
    63    31    56 1   
    64    57    59 1   
    65    57    60 1   
@<TRIPOS>SUBSTRUCTURE
     1 AE8         1 TEMP              0 ****  ****    0 ROOT
