@<TRIPOS>MOLECULE
AE8
   60    65     1     0     0
SMALL
No Charge or Current Charge


@<TRIPOS>ATOM
      1 C13         -5.6220     0.2240    -0.7230 ca         1 AE8      -0.145000
      2 C20         -7.1420    -1.2060     1.0770 ca         1 AE8       0.346900
      3 C28          3.5900     2.8150    -0.2870 ca         1 AE8       0.264900
      4 C25          4.1070     0.4520    -0.5320 ca         1 AE8      -0.190300
      5 C24          5.3560     0.8010    -0.1000 ca         1 AE8       0.047600
      6 C14         -6.9000     0.6970    -0.4020 ca         1 AE8       0.093100
      7 C19         -7.6770    -0.0220     0.5320 ca         1 AE8      -0.010900
      8 C26          3.1720     1.5020    -0.6490 ca         1 AE8       0.226000
      9 C30          5.7300     2.0980     0.2490 ca         1 AE8       0.296800
     10 C12         -5.1620    -0.9650    -0.1260 ca         1 AE8       0.340300
     11 C31          7.1060     2.3080     0.6940 cc         1 AE8      -0.184800
     12 C32          7.9430     1.1850     0.7190 cd         1 AE8      -0.293200
     13 C33          7.5300    -0.2010     0.3330 c          1 AE8       0.567200
     14 C6          -0.5120    -1.4120     1.6310 c6         1 AE8      -0.078900
     15 C8          -0.6580    -1.1150    -0.8680 c6         1 AE8      -0.078900
     16 C22          5.5230    -1.5380    -0.5240 c5         1 AE8       0.057000
     17 C5           0.9210    -1.9590     1.4480 c6         1 AE8       0.180800
     18 C9           0.7870    -1.6540    -0.9840 c6         1 AE8       0.180800
     19 C16         -8.7990     2.1090    -0.8740 c6         1 AE8       0.117600
     20 C17         -9.2790     1.7880     0.5590 c6         1 AE8       0.115600
     21 C7          -1.3690    -1.6940     0.3790 c6         1 AE8       0.180500
     22 C2           4.0090    -1.0550    -0.8080 c5         1 AE8       0.239300
     23 C11         -3.7640    -1.5150    -0.4550 c3         1 AE8       0.112500
     24 N29          4.8490     3.1220     0.1610 nb         1 AE8      -0.593000
     25 N21         -5.9080    -1.6750     0.7610 nb         1 AE8      -0.674000
     26 N23          6.1880    -0.2940    -0.0660 n          1 AE8      -0.275000
     27 N4           1.5870    -1.3810     0.2470 n3         1 AE8      -0.741600
     28 N10         -2.7320    -1.1430     0.5560 n7         1 AE8      -0.872400
     29 O15         -7.3820     1.8480    -0.9910 os         1 AE8      -0.323100
     30 O18         -8.9340     0.4270     0.9020 os         1 AE8      -0.320100
     31 O1           3.6760    -1.2830    -2.1790 oh         1 AE8      -0.628000
     32 F27          1.9240     1.2940    -1.1240 f          1 AE8      -0.140000
     33 H13         -4.9960     0.7630    -1.4270 ha         1 AE8       0.155000
     34 H20         -7.7130    -1.7920     1.7960 h4         1 AE8       0.031100
     35 H28          2.8940     3.6490    -0.3690 h4         1 AE8       0.042100
     36 H31          7.4630     3.2920     0.9850 ha         1 AE8       0.207000
     37 H111        -3.8370    -2.6090    -0.5320 h1         1 AE8       0.052200
     38 H112        -3.4780    -1.1480    -1.4490 h1         1 AE8       0.052200
     39 H32          8.9790     1.2590     1.0320 ha         1 AE8       0.213000
     40 H61C        -0.9700    -1.8740     2.5150 hc         1 AE8       0.055700
     41 H62C        -0.4680    -0.3310     1.8240 hc         1 AE8       0.055700
     42 H51C         1.4990    -1.7240     2.3540 h1         1 AE8       0.034450
     43 H52C         0.8790    -3.0560     1.3690 h1         1 AE8       0.034450
     44 H7          -1.4500    -2.7850     0.2610 h1         1 AE8       0.017700
     45 H81C        -0.6360    -0.0180    -0.8110 hc         1 AE8       0.055700
     46 H82C        -1.2080    -1.3740    -1.7810 hc         1 AE8       0.055700
     47 H91C         0.7510    -2.7360    -1.1810 h1         1 AE8       0.034450
     48 H92C         1.2410    -1.1810    -1.8630 h1         1 AE8       0.034450
     49 H221         5.5720    -2.3150     0.2500 h1         1 AE8       0.075200
     50 H222         6.0060    -1.9290    -1.4280 h1         1 AE8       0.075200
     51 H161        -9.3390     1.4740    -1.5910 h1         1 AE8       0.070700
     52 H162        -8.9980     3.1600    -1.1250 h1         1 AE8       0.070700
     53 H171        -8.7910     2.4700     1.2690 h1         1 AE8       0.068700
     54 H172       -10.3660     1.9220     0.6440 h1         1 AE8       0.068700
     55 H10         -3.0840    -1.4600     1.4690 hn         1 AE8       0.413000
     56 H1           4.1940    -0.6340    -2.7000 ho         1 AE8       0.454000
     57 C3           3.0170    -1.8200     0.1510 c3         1 AE8       0.198800
     58 O34          8.2850    -1.1620     0.3600 o          1 AE8      -0.537000
     59 H31C         3.0540    -2.8860    -0.1110 h1         1 AE8       0.047200
     60 H32C         3.4620    -1.7420     1.1520 h1         1 AE8       0.047200
@<TRIPOS>BOND
     1     1     6 ar  
     2     1    10 ar  
     3     1    33 1   
     4     2     7 ar  
     5     2    25 ar  
     6     2    34 1   
     7     3     8 ar  
     8     3    24 ar  
     9     3    35 1   
    10     4     5 ar  
    11     4     8 ar  
    12     4    22 1   
    13     5     9 ar  
    14     5    26 1   
    15     6     7 ar  
    16     6    29 1   
    17     7    30 1   
    18     8    32 1   
    19     9    11 1   
    20     9    24 ar  
    21    10    23 1   
    22    10    25 ar  
    23    11    12 2   
    24    11    36 1   
    25    12    13 1   
    26    12    39 1   
    27    13    26 1   
    28    13    58 2   
    29    14    17 1   
    30    14    21 1   
    31    14    40 1   
    32    14    41 1   
    33    15    18 1   
    34    15    21 1   
    35    15    45 1   
    36    15    46 1   
    37    16    22 1   
    38    16    26 1   
    39    16    49 1   
    40    16    50 1   
    41    17    27 1   
    42    17    42 1   
    43    17    43 1   
    44    18    27 1   
    45    18    47 1   
    46    18    48 1   
    47    19    20 1   
    48    19    29 1   
    49    19    51 1   
    50    19    52 1   
    51    20    30 1   
    52    20    53 1   
    53    20    54 1   
    54    21    28 1   
    55    21    44 1   
    56    22    31 1   
    57    22    57 1   
    58    23    28 1   
    59    23    37 1   
    60    23    38 1   
    61    27    57 1   
    62    28    55 1   
    63    31    56 1   
    64    57    59 1   
    65    57    60 1   
@<TRIPOS>SUBSTRUCTURE
     1 AE8         1 TEMP              0 ****  ****    0 ROOT
