@<TRIPOS>MOLECULE
AE9
   11    10     1     0     0
SMALL
No Charge or Current Charge


@<TRIPOS>ATOM
      1 NAS         -0.6420    -0.2460     0.3190 n2         1 AE9      -0.421200
      2 CAM          0.3160     0.7850    -0.1150 c3         1 AE9       0.159800
      3 CAO          1.7420     0.5100     0.4310 c3         1 AE9       0.179600
      4 O1           2.3040    -0.6870    -0.1390 oh         1 AE9      -0.648000
      5 NAC         -2.8480    -0.2370    -0.5590 n1         1 AE9      -0.086000
      6 NAT         -1.7750    -0.1850    -0.1840 n1         1 AE9       0.226000
      7 H1           3.1830    -0.8170     0.2810 ho         1 AE9       0.444000
      8 HAO1         2.3780     1.3720     0.1890 h1         1 AE9       0.026200
      9 HAO2         1.6980     0.4300     1.5250 h1         1 AE9       0.026200
     10 HAM1         0.3620     0.8400    -1.2110 h1         1 AE9       0.045700
     11 HAM2        -0.0050     1.7710     0.2460 h1         1 AE9       0.045700
@<TRIPOS>BOND
     1     1     2 1   
     2     1     6 1   
     3     2     3 1   
     4     2    10 1   
     5     2    11 1   
     6     3     4 1   
     7     3     8 1   
     8     3     9 1   
     9     4     7 1   
    10     5     6 3   
@<TRIPOS>SUBSTRUCTURE
     1 AE9         1 TEMP              0 ****  ****    0 ROOT
