@<TRIPOS>MOLECULE
AE9
   11    10     1     0     0
SMALL
bcc


@<TRIPOS>ATOM
      1 NAS         -0.5710    -0.2710     0.2800 n2         1 AE9      -0.421200
      2 CAM          0.3480     0.7970    -0.1340 c3         1 AE9       0.159800
      3 CAO          1.7170     0.5180     0.4320 c3         1 AE9       0.156400
      4 O1           2.2170    -0.6680    -0.1360 oh         1 AE9      -0.585800
      5 NAC         -2.7700    -0.2420    -0.5100 n1         1 AE9      -0.086000
      6 NAT         -1.7020    -0.2100    -0.1570 n1         1 AE9       0.226000
      7 H1           3.0730    -0.8530     0.2610 ho         1 AE9       0.405000
      8 HAO1         2.3500     1.3840     0.2030 h1         1 AE9       0.026200
      9 HAO2         1.6480     0.4520     1.5250 h1         1 AE9       0.026200
     10 HAM1         0.3960     0.8650    -1.2250 h1         1 AE9       0.045700
     11 HAM2         0.0060     1.7640     0.2440 h1         1 AE9       0.045700
@<TRIPOS>BOND
     1     1     2 1   
     2     1     6 1   
     3     2     3 1   
     4     2    10 1   
     5     2    11 1   
     6     3     4 1   
     7     3     8 1   
     8     3     9 1   
     9     4     7 1   
    10     5     6 3   
@<TRIPOS>SUBSTRUCTURE
     1 AE9         1 TEMP              0 ****  ****    0 ROOT
