@<TRIPOS>MOLECULE
AEA
   20    19     1     0     0
SMALL
bcc


@<TRIPOS>ATOM
      1 N1          -1.9960     1.7040    -0.1910 n8         1 AEA      -0.885800
      2 C1          -1.9450     0.3530     0.3270 c3         1 AEA       0.105500
      3 C3          -0.7350    -0.4780    -0.1300 c3         1 AEA      -0.065300
      4 C2          -3.2060    -0.3860    -0.1110 c          1 AEA       0.675100
      5 N2          -3.7490    -1.1870     0.8130 nt         1 AEA      -0.678000
      6 S1           0.7900     0.2450     0.5470 ss         1 AEA      -0.312200
      7 C4           2.0110    -0.6130    -0.4730 c3         1 AEA      -0.112300
      8 O1           3.5220     0.7320     0.7710 o          1 AEA      -0.819800
      9 C5           3.4320    -0.1460    -0.1050 c          1 AEA       0.945600
     10 O3          -3.6460    -0.2690    -1.2460 o          1 AEA      -0.620100
     11 O2           4.3540    -0.7000    -0.7290 o          1 AEA      -0.819800
     12 HN11        -1.1330     2.1810     0.0410 hn         1 AEA       0.360300
     13 HN12        -2.0360     1.6710    -1.2030 hn         1 AEA       0.360300
     14 H11         -1.9280     0.4080     1.4210 h1         1 AEA       0.066700
     15 H31         -0.8320    -1.5150     0.1980 h1         1 AEA       0.054200
     16 H32         -0.6840    -0.4760    -1.2220 h1         1 AEA       0.054200
     17 HN21        -3.3870    -1.2420     1.7490 hn         1 AEA       0.307000
     18 HN22        -4.5570    -1.7470     0.5950 hn         1 AEA       0.307000
     19 H41          1.9230    -1.6930    -0.3310 h1         1 AEA       0.037700
     20 H42          1.8150    -0.4140    -1.5300 h1         1 AEA       0.037700
@<TRIPOS>BOND
     1     1     2 1   
     2     1    12 1   
     3     1    13 1   
     4     2     3 1   
     5     2     4 1   
     6     2    14 1   
     7     3     6 1   
     8     3    15 1   
     9     3    16 1   
    10     4     5 1   
    11     4    10 2   
    12     5    17 1   
    13     5    18 1   
    14     6     7 1   
    15     7     9 1   
    16     7    19 1   
    17     7    20 1   
    18     8     9 1   
    19     9    11 1   
@<TRIPOS>SUBSTRUCTURE
     1 AEA         1 TEMP              0 ****  ****    0 ROOT
