@<TRIPOS>MOLECULE
AEA
   20    19     1     0     0
SMALL
No Charge or Current Charge


@<TRIPOS>ATOM
      1 N1          -1.9880     1.8600    -0.4340 n8         1 AEA      -0.996200
      2 C1          -2.0610     0.5050     0.2160 c3         1 AEA       0.105500
      3 C3          -0.7980    -0.3230    -0.1420 c3         1 AEA      -0.017400
      4 C2          -3.3730    -0.3310    -0.0410 c          1 AEA       0.608100
      5 N2          -3.5790    -1.3990     0.7660 nt         1 AEA      -0.611000
      6 S1           0.7660     0.5900     0.2630 ss         1 AEA      -0.408000
      7 C4           2.0230    -0.6810    -0.2700 c3         1 AEA      -0.064400
      8 O1           4.0360    -0.5070     1.0000 o          1 AEA      -0.714500
      9 C5           3.4940    -0.2380    -0.0630 c          1 AEA       0.735000
     10 O3          -4.1920    -0.0690    -0.9120 o          1 AEA      -0.620100
     11 O2           4.0570     0.3470    -0.9790 o          1 AEA      -0.714500
     12 HN11        -1.0120     2.1760    -0.3670 hn         1 AEA       0.415500
     13 HN12        -2.1320     1.7490    -1.4450 hn         1 AEA       0.415500
     14 H11         -2.0270     0.6720     1.3020 h1         1 AEA       0.066700
     15 H31         -0.8050    -1.2680     0.4160 h1         1 AEA       0.054200
     16 H32         -0.8050    -0.5620    -1.2140 h1         1 AEA       0.054200
     17 HN21        -2.9150    -1.6220     1.4940 hn         1 AEA       0.307000
     18 HN22        -4.4070    -1.9610     0.6370 hn         1 AEA       0.307000
     19 H41          1.8570    -1.6060     0.2970 h1         1 AEA       0.037700
     20 H42          1.8740    -0.9040    -1.3340 h1         1 AEA       0.037700
@<TRIPOS>BOND
     1     1     2 1   
     2     1    12 1   
     3     1    13 1   
     4     2     3 1   
     5     2     4 1   
     6     2    14 1   
     7     3     6 1   
     8     3    15 1   
     9     3    16 1   
    10     4     5 1   
    11     4    10 2   
    12     5    17 1   
    13     5    18 1   
    14     6     7 1   
    15     7     9 1   
    16     7    19 1   
    17     7    20 1   
    18     8     9 1   
    19     9    11 1   
@<TRIPOS>SUBSTRUCTURE
     1 AEA         1 TEMP              0 ****  ****    0 ROOT
