@<TRIPOS>MOLECULE
AEB
   90    92     1     0     0
SMALL
No Charge or Current Charge


@<TRIPOS>ATOM
      1 O16         -5.2310    -1.9170    -0.8020 oh         1 AEB      -0.652000
      2 C3          -2.6950    -4.8650    -0.4550 ca         1 AEB      -0.062500
      3 C2          -2.8800    -6.2450    -0.6530 ca         1 AEB      -0.178000
      4 C1          -3.9350    -6.9100    -0.0080 ca         1 AEB       0.125100
      5 C6          -4.8040    -6.2000     0.8320 ca         1 AEB      -0.178000
      6 C5          -4.6210    -4.8200     1.0310 ca         1 AEB      -0.062500
      7 C4          -3.5660    -4.1440     0.3870 ca         1 AEB      -0.092300
      8 O74         -4.1190    -8.2470    -0.1950 oh         1 AEB      -0.541100
      9 C11         -3.3590    -2.6470     0.6010 c3         1 AEB      -0.067100
     10 C12         -3.8000    -1.7890    -0.6110 c3         1 AEB       0.098300
     11 C15         -3.3760    -0.2990    -0.4240 c          1 AEB       0.555100
     12 O17         -3.9520     0.4530     0.3500 o          1 AEB      -0.545100
     13 N18         -2.3260     0.1210    -1.2170 ns         1 AEB      -0.493900
     14 C19         -1.7330     1.4860    -1.2270 c3         1 AEB       0.041700
     15 C29         -0.1780     1.3670    -1.4210 c          1 AEB       0.603100
     16 O31          0.2900     0.2830    -1.7640 o          1 AEB      -0.647100
     17 C20         -2.4310     2.3820    -2.3110 c3         1 AEB      -0.065700
     18 C21         -2.2790     1.8030    -3.7490 c3         1 AEB      -0.077400
     19 C22         -3.9070     2.6880    -1.9530 c3         1 AEB      -0.088100
     20 C23         -2.7600     2.7430    -4.8750 c3         1 AEB      -0.087100
     21 N32          0.7250     2.4510    -1.1850 n          1 AEB      -0.376800
     22 C33          0.3810     3.9070    -1.0920 c5         1 AEB       0.132700
     23 C34          1.7900     4.5580    -0.8780 c5         1 AEB      -0.070700
     24 C35          2.6640     3.7220    -1.8370 c5         1 AEB      -0.082400
     25 C36          2.1520     2.2620    -1.6110 c5         1 AEB       0.024700
     26 C37         -0.5910     4.3810     0.0330 c6         1 AEB      -0.097400
     27 C39         -0.0270     4.1870     1.4610 c6         1 AEB       0.233300
     28 C42          1.2460     5.0580     1.5860 c6         1 AEB      -0.091400
     29 C43          2.3210     4.5820     0.5890 c6         1 AEB      -0.076400
     30 O49         -1.0040     4.6400     2.4110 os         1 AEB      -0.602700
     31 S51         -1.4420     3.6140     3.6140 s6         1 AEB       1.490300
     32 O52         -1.9290     2.4230     2.9050 o          1 AEB      -0.705533
     33 O53         -0.1980     3.3980     4.3670 o          1 AEB      -0.705533
     34 O54         -2.4770     4.3540     4.3490 o          1 AEB      -0.705533
     35 C55          3.0380     1.4630    -0.5970 c          1 AEB       0.605100
     36 O56          2.7170     1.0460     0.5090 o          1 AEB      -0.561100
     37 N57          4.2840     1.2430    -1.1530 ns         1 AEB      -0.517900
     38 C58          5.3610     0.4930    -0.5060 c3         1 AEB       0.107000
     39 C59          5.1510    -1.0310    -0.6120 c3         1 AEB      -0.091400
     40 C62          6.2910    -1.8430     0.0430 c3         1 AEB      -0.089400
     41 C65          6.0820    -3.3660    -0.0640 c3         1 AEB       0.223800
     42 N68          7.1980    -4.0810     0.5630 nu         1 AEB      -0.914400
     43 C71          7.2470    -5.3850     0.5750 c2         1 AEB       0.808100
     44 N73          7.4890    -5.8630     1.6860 n2         1 AEB      -0.911100
     45 N72          8.0410    -5.6140    -0.4180 nv         1 AEB      -1.073200
     46 H2          -1.8750    -4.3550    -0.9570 ha         1 AEB       0.115500
     47 H1          -2.2010    -6.7880    -1.3060 ha         1 AEB       0.113000
     48 H4          -5.6200    -6.7160     1.3310 ha         1 AEB       0.113000
     49 H3          -5.3020    -4.2760     1.6840 ha         1 AEB       0.115500
     50 H47         -3.4250    -8.5720    -0.8070 ho         1 AEB       0.456000
     51 H8          -5.6620    -1.3450    -0.1280 ho         1 AEB       0.471000
     52 H7          -3.2770    -2.1640    -1.5010 h1         1 AEB       0.066700
     53 H9          -1.8840    -0.5800    -1.8030 hn         1 AEB       0.319500
     54 H10         -1.8800     1.9090    -0.2280 h1         1 AEB       0.138700
     55 H11         -1.9330     3.3540    -2.3180 hc         1 AEB       0.047700
     56 H12         -1.2230     1.5730    -3.9370 hc         1 AEB       0.039700
     57 H13         -2.8230     0.8540    -3.8270 hc         1 AEB       0.039700
     58 H14         -3.9920     3.0260    -0.9130 hc         1 AEB       0.043033
     59 H15         -4.3090     3.4850    -2.5880 hc         1 AEB       0.043033
     60 H16         -4.5380     1.8010    -2.0810 hc         1 AEB       0.043033
     61 H17         -2.5280     2.3090    -5.8550 hc         1 AEB       0.027033
     62 H18         -3.8430     2.9000    -4.8270 hc         1 AEB       0.027033
     63 H19         -2.2610     3.7180    -4.8080 hc         1 AEB       0.027033
     64 H20         -0.0200     4.2430    -2.0560 h1         1 AEB       0.027700
     65 H21          1.7700     5.6100    -1.1870 hc         1 AEB       0.054700
     66 H22          2.4850     4.0270    -2.8750 hc         1 AEB       0.047200
     67 H23          3.7380     3.8490    -1.6550 hc         1 AEB       0.047200
     68 H24          2.2030     1.7180    -2.5640 h1         1 AEB       0.050700
     69 H25         -0.7820     5.4520    -0.1200 hc         1 AEB       0.060700
     70 H26         -1.5790     3.9250    -0.0480 hc         1 AEB       0.060700
     71 H27          0.2210     3.1260     1.6230 h1         1 AEB       0.065700
     72 H28          1.0060     6.1150     1.4080 hc         1 AEB       0.058700
     73 H29          1.6410     4.9930     2.6080 hc         1 AEB       0.058700
     74 H30          2.6640     3.5920     0.9040 hc         1 AEB       0.049200
     75 H31          3.2020     5.2360     0.6520 hc         1 AEB       0.049200
     76 H33          4.4460     1.6200    -2.0790 hn         1 AEB       0.303500
     77 H34          6.3110     0.7650    -0.9850 h1         1 AEB       0.055200
     78 H35          5.4190     0.7870     0.5510 h1         1 AEB       0.055200
     79 H36          4.1990    -1.3000    -0.1380 hc         1 AEB       0.040200
     80 H37          5.0720    -1.3090    -1.6710 hc         1 AEB       0.040200
     81 H38          7.2420    -1.5760    -0.4330 hc         1 AEB       0.056200
     82 H39          6.3690    -1.5630     1.1010 hc         1 AEB       0.056200
     83 H40          5.1400    -3.6400     0.4280 h1         1 AEB       0.030200
     84 H41          6.0050    -3.6460    -1.1240 h1         1 AEB       0.030200
     85 H42          7.3870    -3.7890     1.5140 hn         1 AEB       0.497000
     86 H45          8.0520    -6.6990     1.4980 hn         1 AEB       0.375400
     87 H43          8.2560    -4.7010    -0.7870 hn         1 AEB       0.452000
     88 H44          7.6030    -6.2060    -1.1100 hn         1 AEB       0.452000
     89 H5          -3.8900    -2.3070     1.5000 hc         1 AEB       0.071200
     90 H6          -2.2960    -2.4560     0.7960 hc         1 AEB       0.071200
@<TRIPOS>BOND
     1     1    10 1   
     2     1    51 1   
     3     2     3 ar  
     4     2     7 ar  
     5     2    46 1   
     6     3     4 ar  
     7     3    47 1   
     8     4     5 ar  
     9     4     8 1   
    10     5     6 ar  
    11     5    48 1   
    12     6     7 ar  
    13     6    49 1   
    14     7     9 1   
    15     8    50 1   
    16     9    10 1   
    17     9    89 1   
    18     9    90 1   
    19    10    11 1   
    20    10    52 1   
    21    11    12 2   
    22    11    13 1   
    23    13    14 1   
    24    13    53 1   
    25    14    15 1   
    26    14    17 1   
    27    14    54 1   
    28    15    16 2   
    29    15    21 1   
    30    17    18 1   
    31    17    19 1   
    32    17    55 1   
    33    18    20 1   
    34    18    56 1   
    35    18    57 1   
    36    19    58 1   
    37    19    59 1   
    38    19    60 1   
    39    20    61 1   
    40    20    62 1   
    41    20    63 1   
    42    21    22 1   
    43    21    25 1   
    44    22    23 1   
    45    22    26 1   
    46    22    64 1   
    47    23    24 1   
    48    23    29 1   
    49    23    65 1   
    50    24    25 1   
    51    24    66 1   
    52    24    67 1   
    53    25    35 1   
    54    25    68 1   
    55    26    27 1   
    56    26    69 1   
    57    26    70 1   
    58    27    28 1   
    59    27    30 1   
    60    27    71 1   
    61    28    29 1   
    62    28    72 1   
    63    28    73 1   
    64    29    74 1   
    65    29    75 1   
    66    30    31 1   
    67    31    32 1   
    68    31    33 1   
    69    31    34 1   
    70    35    36 2   
    71    35    37 1   
    72    37    38 1   
    73    37    76 1   
    74    38    39 1   
    75    38    77 1   
    76    38    78 1   
    77    39    40 1   
    78    39    79 1   
    79    39    80 1   
    80    40    41 1   
    81    40    81 1   
    82    40    82 1   
    83    41    42 1   
    84    41    83 1   
    85    41    84 1   
    86    42    43 1   
    87    42    85 1   
    88    43    44 2   
    89    43    45 1   
    90    44    86 1   
    91    45    87 1   
    92    45    88 1   
@<TRIPOS>SUBSTRUCTURE
     1 AEB         1 TEMP              0 ****  ****    0 ROOT
