@<TRIPOS>MOLECULE
AEB
   90    92     1     0     0
SMALL
bcc


@<TRIPOS>ATOM
      1 O16         -5.3630    -1.5320    -0.0060 oh         1 AEB      -0.589800
      2 C3          -2.8580    -4.4960    -0.4570 ca         1 AEB      -0.080500
      3 C2          -3.1660    -5.8490    -0.4280 ca         1 AEB      -0.196000
      4 C1          -3.9920    -6.3510     0.5740 ca         1 AEB       0.125100
      5 C6          -4.4960    -5.4840     1.5400 ca         1 AEB      -0.196000
      6 C5          -4.1810    -4.1350     1.4910 ca         1 AEB      -0.080500
      7 C4          -3.3550    -3.6150     0.4970 ca         1 AEB      -0.092300
      8 O74         -4.3270    -7.6560     0.6580 oh         1 AEB      -0.502100
      9 C11         -3.0430    -2.1490     0.4300 c3         1 AEB      -0.067100
     10 C12         -4.0490    -1.3860    -0.4520 c3         1 AEB       0.075100
     11 C15         -3.6550     0.0910    -0.4810 c          1 AEB       0.622100
     12 O17         -4.2280     0.8990     0.2330 o          1 AEB      -0.545100
     13 N18         -2.6330     0.3820    -1.2970 ns         1 AEB      -0.560900
     14 C19         -1.9240     1.6400    -1.3190 c3         1 AEB       0.041700
     15 C29         -0.4270     1.3190    -1.3340 c          1 AEB       0.670100
     16 O31         -0.0680     0.1730    -1.5830 o          1 AEB      -0.647100
     17 C20         -2.3290     2.5070    -2.5340 c3         1 AEB      -0.065700
     18 C21         -2.1120     1.7670    -3.8570 c3         1 AEB      -0.077400
     19 C22         -3.7640     2.9980    -2.3800 c3         1 AEB      -0.088100
     20 C23         -2.2990     2.6500    -5.0840 c3         1 AEB      -0.087100
     21 N32          0.4970     2.2780    -1.1150 n          1 AEB      -0.443800
     22 C33          0.3880     3.7480    -1.0240 c5         1 AEB       0.132700
     23 C34          1.7940     4.1580    -0.5670 c5         1 AEB      -0.070700
     24 C35          2.6840     3.1810    -1.3220 c5         1 AEB      -0.082400
     25 C36          1.8750     1.8730    -1.3660 c5         1 AEB       0.024700
     26 C37         -0.6880     4.3600    -0.1390 c6         1 AEB      -0.097400
     27 C39         -0.4490     4.1530     1.3450 c6         1 AEB       0.210100
     28 C42          0.8950     4.7320     1.7460 c6         1 AEB      -0.091400
     29 C43          1.9980     4.0560     0.9450 c6         1 AEB      -0.076400
     30 O49         -1.5000     4.8210     2.0450 os         1 AEB      -0.579500
     31 S51         -2.2940     3.9820     3.2080 s6         1 AEB       1.490300
     32 O52         -2.9140     2.8460     2.5240 o          1 AEB      -0.705533
     33 O53         -1.2760     3.5910     4.1890 o          1 AEB      -0.705533
     34 O54         -3.2340     4.9980     3.6800 o          1 AEB      -0.705533
     35 C55          2.3470     0.8220    -0.3620 c          1 AEB       0.672100
     36 O56          1.8750     0.6960     0.7570 o          1 AEB      -0.561100
     37 N57          3.3710     0.0800    -0.8050 ns         1 AEB      -0.584900
     38 C58          3.9910    -0.9560    -0.0060 c3         1 AEB       0.107000
     39 C59          5.2500    -1.4770    -0.6800 c3         1 AEB      -0.091400
     40 C62          5.9100    -2.5720     0.1450 c3         1 AEB      -0.089400
     41 C65          7.1510    -3.1310    -0.5310 c3         1 AEB       0.223800
     42 N68          7.7520    -4.1520     0.2980 nu         1 AEB      -0.859200
     43 C71          8.8850    -4.8480    -0.0220 c2         1 AEB       0.808100
     44 N73          9.1800    -5.9020     0.6540 n2         1 AEB      -0.911100
     45 N72          9.6630    -4.2860    -1.0070 nv         1 AEB      -0.962800
     46 H2          -2.2110    -4.1270    -1.2450 ha         1 AEB       0.133500
     47 H1          -2.7580    -6.5100    -1.1840 ha         1 AEB       0.131000
     48 H4          -5.1350    -5.8680     2.3270 ha         1 AEB       0.131000
     49 H3          -4.5830    -3.4780     2.2520 ha         1 AEB       0.133500
     50 H47         -3.9260    -8.1500    -0.0660 ho         1 AEB       0.417000
     51 H8          -5.4970    -0.9040     0.7150 ho         1 AEB       0.432000
     52 H7          -4.0050    -1.7950    -1.4670 h1         1 AEB       0.066700
     53 H9          -2.1980    -0.3760    -1.8010 hn         1 AEB       0.319500
     54 H10         -2.1860     2.1590    -0.3940 h1         1 AEB       0.138700
     55 H11         -1.6800     3.3880    -2.5410 hc         1 AEB       0.047700
     56 H12         -1.1030     1.3470    -3.8870 hc         1 AEB       0.039700
     57 H13         -2.7980     0.9170    -3.9100 hc         1 AEB       0.039700
     58 H14         -3.9200     3.4740    -1.4110 hc         1 AEB       0.043033
     59 H15         -4.0090     3.7320    -3.1460 hc         1 AEB       0.043033
     60 H16         -4.4780     2.1780    -2.4670 hc         1 AEB       0.043033
     61 H17         -2.0970     2.0890    -5.9960 hc         1 AEB       0.027033
     62 H18         -3.3150     3.0380    -5.1610 hc         1 AEB       0.027033
     63 H19         -1.6190     3.5030    -5.0650 hc         1 AEB       0.027033
     64 H20          0.2380     4.1380    -2.0380 h1         1 AEB       0.027700
     65 H21          1.9750     5.1880    -0.8860 hc         1 AEB       0.054700
     66 H22          2.8520     3.5290    -2.3420 hc         1 AEB       0.047200
     67 H23          3.6630     3.0530    -0.8590 hc         1 AEB       0.047200
     68 H24          1.9540     1.4360    -2.3660 h1         1 AEB       0.050700
     69 H25         -0.6590     5.4340    -0.3510 hc         1 AEB       0.060700
     70 H26         -1.6920     4.0400    -0.4110 hc         1 AEB       0.060700
     71 H27         -0.4570     3.0770     1.5630 h1         1 AEB       0.065700
     72 H28          0.8910     5.8120     1.5620 hc         1 AEB       0.058700
     73 H29          1.0600     4.5850     2.8150 hc         1 AEB       0.058700
     74 H30          2.0520     3.0090     1.2450 hc         1 AEB       0.049200
     75 H31          2.9660     4.4960     1.1940 hc         1 AEB       0.049200
     76 H33          3.6630     0.1740    -1.7650 hn         1 AEB       0.303500
     77 H34          4.2380    -0.5520     0.9790 h1         1 AEB       0.055200
     78 H35          3.2890    -1.7800     0.1550 h1         1 AEB       0.055200
     79 H36          4.9990    -1.8650    -1.6720 hc         1 AEB       0.040200
     80 H37          5.9520    -0.6520    -0.8290 hc         1 AEB       0.040200
     81 H38          6.1810    -2.1830     1.1310 hc         1 AEB       0.056200
     82 H39          5.1940    -3.3840     0.3110 hc         1 AEB       0.056200
     83 H40          6.8780    -3.5120    -1.5240 h1         1 AEB       0.030200
     84 H41          7.8660    -2.3180    -0.6860 h1         1 AEB       0.030200
     85 H42          7.1220    -4.6730     0.8870 hn         1 AEB       0.441800
     86 H45         10.0520    -6.3030     0.3310 hn         1 AEB       0.375400
     87 H43          9.2050    -3.7500    -1.7270 hn         1 AEB       0.396800
     88 H44         10.3750    -4.8890    -1.3850 hn         1 AEB       0.396800
     89 H5          -3.0520    -1.7140     1.4340 hc         1 AEB       0.071200
     90 H6          -2.0340    -2.0000     0.0370 hc         1 AEB       0.071200
@<TRIPOS>BOND
     1     1    10 1   
     2     1    51 1   
     3     2     3 ar  
     4     2     7 ar  
     5     2    46 1   
     6     3     4 ar  
     7     3    47 1   
     8     4     5 ar  
     9     4     8 1   
    10     5     6 ar  
    11     5    48 1   
    12     6     7 ar  
    13     6    49 1   
    14     7     9 1   
    15     8    50 1   
    16     9    10 1   
    17     9    89 1   
    18     9    90 1   
    19    10    11 1   
    20    10    52 1   
    21    11    12 2   
    22    11    13 1   
    23    13    14 1   
    24    13    53 1   
    25    14    15 1   
    26    14    17 1   
    27    14    54 1   
    28    15    16 2   
    29    15    21 1   
    30    17    18 1   
    31    17    19 1   
    32    17    55 1   
    33    18    20 1   
    34    18    56 1   
    35    18    57 1   
    36    19    58 1   
    37    19    59 1   
    38    19    60 1   
    39    20    61 1   
    40    20    62 1   
    41    20    63 1   
    42    21    22 1   
    43    21    25 1   
    44    22    23 1   
    45    22    26 1   
    46    22    64 1   
    47    23    24 1   
    48    23    29 1   
    49    23    65 1   
    50    24    25 1   
    51    24    66 1   
    52    24    67 1   
    53    25    35 1   
    54    25    68 1   
    55    26    27 1   
    56    26    69 1   
    57    26    70 1   
    58    27    28 1   
    59    27    30 1   
    60    27    71 1   
    61    28    29 1   
    62    28    72 1   
    63    28    73 1   
    64    29    74 1   
    65    29    75 1   
    66    30    31 1   
    67    31    32 1   
    68    31    33 1   
    69    31    34 1   
    70    35    36 2   
    71    35    37 1   
    72    37    38 1   
    73    37    76 1   
    74    38    39 1   
    75    38    77 1   
    76    38    78 1   
    77    39    40 1   
    78    39    79 1   
    79    39    80 1   
    80    40    41 1   
    81    40    81 1   
    82    40    82 1   
    83    41    42 1   
    84    41    83 1   
    85    41    84 1   
    86    42    43 1   
    87    42    85 1   
    88    43    44 2   
    89    43    45 1   
    90    44    86 1   
    91    45    87 1   
    92    45    88 1   
@<TRIPOS>SUBSTRUCTURE
     1 AEB         1 TEMP              0 ****  ****    0 ROOT
