@<TRIPOS>MOLECULE
AED
   37    38     1     0     0
SMALL
bcc


@<TRIPOS>ATOM
      1 C4           0.0420     2.0300    -0.0630 ca         1 AED       0.138100
      2 C5           2.3060    -0.3180     1.2700 c6         1 AED      -0.067900
      3 C6           1.8660    -0.9790    -1.1190 c6         1 AED      -0.067900
      4 C7          -2.0300     0.2220     0.4820 ca         1 AED      -0.117300
      5 C8          -1.2690     2.4770     0.0820 ca         1 AED      -0.223000
      6 C10          3.7420    -0.8160     1.1450 c6         1 AED      -0.074400
      7 C13         -3.1350    -0.7650     0.7260 c3         1 AED      -0.027100
      8 C15         -3.7400    -1.2770    -0.5800 c3         1 AED       0.149800
      9 O9           1.0560     2.8920    -0.3110 oh         1 AED      -0.497100
     10 C12         -2.2920     1.5820     0.3500 ca         1 AED      -0.087000
     11 N16         -4.7890    -2.2490    -0.3160 n8         1 AED      -0.887800
     12 C3          -0.7130    -0.2010     0.3270 ca         1 AED      -0.088000
     13 C1           0.3400     0.6670     0.0510 ca         1 AED      -0.098300
     14 C2           1.7510     0.1460    -0.0840 c6         1 AED      -0.010400
     15 C14          3.8550    -1.9240     0.1040 c6         1 AED      -0.074400
     16 C11          3.3050    -1.4700    -1.2440 c6         1 AED      -0.074400
     17 H5A          2.2480     0.5010     1.9910 hc         1 AED       0.039950
     18 H6           1.2280    -1.8210    -0.8300 hc         1 AED       0.039950
     19 H6A          1.4990    -0.6290    -2.0880 hc         1 AED       0.039950
     20 H8          -1.4900     3.5350    -0.0120 ha         1 AED       0.129000
     21 H10          4.3900     0.0190     0.8580 hc         1 AED       0.038700
     22 H10A         4.1010    -1.1670     2.1160 hc         1 AED       0.038700
     23 H13         -2.7630    -1.6190     1.2990 hc         1 AED       0.052200
     24 H13A        -3.9240    -0.3010     1.3260 hc         1 AED       0.052200
     25 H15         -4.0740    -0.4140    -1.1740 h1         1 AED       0.030200
     26 H15A        -2.9560    -1.7660    -1.1640 h1         1 AED       0.030200
     27 HO9          0.7190     3.7930    -0.3550 ho         1 AED       0.423000
     28 H12         -3.3040     1.9530     0.4610 ha         1 AED       0.128000
     29 HN16        -5.5720    -1.7850     0.1290 hn         1 AED       0.336800
     30 HN1A        -5.1460    -2.6050    -1.1930 hn         1 AED       0.336800
     31 H3          -0.5020    -1.2610     0.4290 ha         1 AED       0.134000
     32 H2           2.3940     0.9600    -0.4310 hc         1 AED       0.067700
     33 H14          4.8940    -2.2450     0.0020 hc         1 AED       0.037200
     34 H14A         3.2920    -2.8000     0.4460 hc         1 AED       0.037200
     35 H11          3.3580    -2.2860    -1.9700 hc         1 AED       0.038700
     36 H11A         3.9300    -0.6620    -1.6390 hc         1 AED       0.038700
     37 H5           1.6750    -1.1240     1.6620 hc         1 AED       0.039950
@<TRIPOS>BOND
     1     1     5 ar  
     2     1     9 1   
     3     1    13 ar  
     4     2     6 1   
     5     2    14 1   
     6     2    17 1   
     7     2    37 1   
     8     3    14 1   
     9     3    16 1   
    10     3    18 1   
    11     3    19 1   
    12     4     7 1   
    13     4    10 ar  
    14     4    12 ar  
    15     5    10 ar  
    16     5    20 1   
    17     6    15 1   
    18     6    21 1   
    19     6    22 1   
    20     7     8 1   
    21     7    23 1   
    22     7    24 1   
    23     8    11 1   
    24     8    25 1   
    25     8    26 1   
    26     9    27 1   
    27    10    28 1   
    28    11    29 1   
    29    11    30 1   
    30    12    13 ar  
    31    12    31 1   
    32    13    14 1   
    33    14    32 1   
    34    15    16 1   
    35    15    33 1   
    36    15    34 1   
    37    16    35 1   
    38    16    36 1   
@<TRIPOS>SUBSTRUCTURE
     1 AED         1 TEMP              0 ****  ****    0 ROOT
