@<TRIPOS>MOLECULE
AED
   37    38     1     0     0
SMALL
No Charge or Current Charge


@<TRIPOS>ATOM
      1 C4           0.0480     2.1120    -0.1060 ca         1 AED       0.138100
      2 C5           2.2520    -0.4510     1.3060 c6         1 AED      -0.067900
      3 C6           1.9070    -0.8510    -1.1910 c6         1 AED      -0.067900
      4 C7          -2.0520     0.3220     0.4700 ca         1 AED      -0.117300
      5 C8          -1.2730     2.5780    -0.0010 ca         1 AED      -0.205000
      6 C10          3.7000    -0.9890     1.1930 c6         1 AED      -0.074400
      7 C13         -3.1850    -0.6520     0.7770 c3         1 AED      -0.027100
      8 C15         -3.6410    -1.4250    -0.4790 c3         1 AED       0.149800
      9 O9           1.0330     3.0150    -0.3870 oh         1 AED      -0.536100
     10 C12         -2.3200     1.6890     0.2860 ca         1 AED      -0.069000
     11 N16         -4.7400    -2.3670    -0.1820 n8         1 AED      -0.998200
     12 C3          -0.7290    -0.1460     0.3640 ca         1 AED      -0.070000
     13 C1           0.3360     0.7370     0.0760 ca         1 AED      -0.098300
     14 C2           1.7730     0.1790    -0.0330 c6         1 AED      -0.010400
     15 C14          3.8320    -2.0050     0.0320 c6         1 AED      -0.074400
     16 C11          3.3550    -1.3890    -1.3060 c6         1 AED      -0.074400
     17 H5A          2.1990     0.2980     2.1080 hc         1 AED       0.039950
     18 H6           1.2190    -1.6930    -1.0350 hc         1 AED       0.039950
     19 H6A          1.6120    -0.3820    -2.1400 hc         1 AED       0.039950
     20 H8          -1.4970     3.6330    -0.1410 ha         1 AED       0.111000
     21 H10          4.3950    -0.1520     1.0340 hc         1 AED       0.038700
     22 H10A         3.9960    -1.4640     2.1390 hc         1 AED       0.038700
     23 H13         -2.8610    -1.3690     1.5420 hc         1 AED       0.052200
     24 H13A        -4.0420    -0.1150     1.2020 hc         1 AED       0.052200
     25 H15         -3.9830    -0.7130    -1.2440 h1         1 AED       0.030200
     26 H15A        -2.7940    -1.9910    -0.8890 h1         1 AED       0.030200
     27 HO9          0.6230     3.9010    -0.4730 ho         1 AED       0.462000
     28 H12         -3.3390     2.0630     0.3620 ha         1 AED       0.110000
     29 HN16        -5.5670    -1.8340     0.1130 hn         1 AED       0.392000
     30 HN1A        -5.0420    -2.8140    -1.0570 hn         1 AED       0.392000
     31 H3          -0.5310    -1.2060     0.5070 ha         1 AED       0.116000
     32 H2           2.4660     1.0000    -0.2600 hc         1 AED       0.067700
     33 H14          4.8760    -2.3340    -0.0590 hc         1 AED       0.037200
     34 H14A         3.2400    -2.9030     0.2580 hc         1 AED       0.037200
     35 H11          3.4100    -2.1430    -2.1030 hc         1 AED       0.038700
     36 H11A         4.0310    -0.5740    -1.6010 hc         1 AED       0.038700
     37 H5           1.5840    -1.2710     1.6030 hc         1 AED       0.039950
@<TRIPOS>BOND
     1     1     5 ar  
     2     1     9 1   
     3     1    13 ar  
     4     2     6 1   
     5     2    14 1   
     6     2    17 1   
     7     2    37 1   
     8     3    14 1   
     9     3    16 1   
    10     3    18 1   
    11     3    19 1   
    12     4     7 1   
    13     4    10 ar  
    14     4    12 ar  
    15     5    10 ar  
    16     5    20 1   
    17     6    15 1   
    18     6    21 1   
    19     6    22 1   
    20     7     8 1   
    21     7    23 1   
    22     7    24 1   
    23     8    11 1   
    24     8    25 1   
    25     8    26 1   
    26     9    27 1   
    27    10    28 1   
    28    11    29 1   
    29    11    30 1   
    30    12    13 ar  
    31    12    31 1   
    32    13    14 1   
    33    14    32 1   
    34    15    16 1   
    35    15    33 1   
    36    15    34 1   
    37    16    35 1   
    38    16    36 1   
@<TRIPOS>SUBSTRUCTURE
     1 AED         1 TEMP              0 ****  ****    0 ROOT
