@<TRIPOS>MOLECULE
AEE
   65    69     1     0     0
SMALL
abcg2


@<TRIPOS>ATOM
      1 CAQ         -7.1780    -0.0380    -1.1850 c6         1 AEE       0.164800
      2 CAO         -8.1060     0.1670    -0.0030 c6         1 AEE       0.164800
      3 NBF         -7.8210     1.4180     0.6710 n3         1 AEE      -0.720600
      4 CAN         -8.7520     1.6520     1.7600 c3         1 AEE       0.169800
      5 CAA         -8.6530     3.0470     2.3550 c3         1 AEE      -0.090100
      6 CAP         -6.4360     1.4380     1.1010 c6         1 AEE       0.164800
      7 CAR         -5.5010     1.2270    -0.0750 c6         1 AEE       0.164800
      8 NBG         -5.7960    -0.0220    -0.7490 n3         1 AEE      -0.724600
      9 CAS         -4.8790    -0.2920    -1.8350 c3         1 AEE       0.215100
     10 CAX         -3.4790    -0.5510    -1.3450 ca         1 AEE      -0.081300
     11 CAI         -3.2470    -1.4620    -0.3170 ca         1 AEE      -0.094000
     12 CAK         -1.9630    -1.7160     0.1340 ca         1 AEE      -0.105500
     13 CAJ         -2.3860     0.0980    -1.9070 ca         1 AEE      -0.094000
     14 CAL         -1.0970    -0.1580    -1.4660 ca         1 AEE      -0.105500
     15 CAY         -0.8630    -1.0660    -0.4340 ca         1 AEE      -0.028800
     16 CBA          0.4970    -1.3030     0.0370 cc         1 AEE      -0.024300
     17 NAW          0.8460    -2.4460     0.7240 na         1 AEE      -0.309400
     18 CAM          1.6080    -0.5050    -0.0750 cd         1 AEE      -0.187200
     19 C5           2.6730    -1.1960     0.5640 ca         1 AEE      -0.262800
     20 C4           2.1590    -2.4040     1.0440 ca         1 AEE       0.152500
     21 N3           2.8490    -3.3470     1.6920 nb         1 AEE      -0.234000
     22 C2           4.1150    -3.0250     1.8550 ca         1 AEE       0.180900
     23 N1           4.7410    -1.9120     1.4700 nb         1 AEE      -0.306000
     24 C6           4.0440    -0.9770     0.8220 ca         1 AEE       0.437900
     25 NAV          4.6650     0.1410     0.4170 nu         1 AEE      -0.923100
     26 CBE          6.0610     0.4470     0.6880 c3         1 AEE       0.292800
     27 CAB          6.2770     0.9300     2.1200 c3         1 AEE      -0.106100
     28 CAZ          6.5460     1.4520    -0.3310 ca         1 AEE      -0.104300
     29 CAG          7.5230     1.1040    -1.2580 ca         1 AEE      -0.099000
     30 CAD          7.9740     2.0250    -2.1960 ca         1 AEE      -0.111000
     31 CAC          7.4440     3.3080    -2.2210 ca         1 AEE      -0.103000
     32 CAE          6.4660     3.6650    -1.3020 ca         1 AEE      -0.111000
     33 CAH          6.0240     2.7450    -0.3620 ca         1 AEE      -0.099000
     34 HAQ1        -7.3970    -1.0050    -1.6450 h1         1 AEE       0.039200
     35 HAQ2        -7.3780     0.7380    -1.9440 h1         1 AEE       0.039200
     36 HAO1        -8.0120    -0.6960     0.6790 h1         1 AEE       0.037700
     37 HAO2        -9.1390     0.1800    -0.3610 h1         1 AEE       0.037700
     38 HAN1        -8.6320     0.9010     2.5600 h1         1 AEE       0.028200
     39 HAN2        -9.7620     1.5150     1.3630 h1         1 AEE       0.028200
     40 HAA1        -8.7460     3.8080     1.5800 hc         1 AEE       0.037367
     41 HAA2        -9.4570     3.2000     3.0760 hc         1 AEE       0.037367
     42 HAA3        -7.7130     3.2130     2.8830 hc         1 AEE       0.037367
     43 HAP1        -6.2000     2.4030     1.5500 h1         1 AEE       0.037700
     44 HAP2        -6.2380     0.6650     1.8650 h1         1 AEE       0.037700
     45 HAR1        -4.4730     1.2090     0.2940 h1         1 AEE       0.039200
     46 HAR2        -5.5840     2.0860    -0.7640 h1         1 AEE       0.039200
     47 HAS1        -5.2420    -1.1800    -2.3630 h1         1 AEE       0.039200
     48 HAS2        -4.8600     0.5220    -2.5790 h1         1 AEE       0.039200
     49 HAI         -4.0850    -1.9640     0.1490 ha         1 AEE       0.121000
     50 HAK         -1.8330    -2.4120     0.9530 ha         1 AEE       0.112500
     51 HAJ         -2.5380     0.8160    -2.7040 ha         1 AEE       0.121000
     52 HAL         -0.2660     0.3520    -1.9360 ha         1 AEE       0.112500
     53 HAW          0.2420    -3.2320     0.9060 hn         1 AEE       0.362000
     54 HAM          1.6370     0.4680    -0.5400 ha         1 AEE       0.201000
     55 H2           4.7340    -3.7510     2.3730 h5         1 AEE       0.042100
     56 HAV          4.1050     0.8520    -0.0250 hn         1 AEE       0.498000
     57 HBE          6.6280    -0.4760     0.5540 h1         1 AEE       0.081700
     58 HAB1         5.7080     1.8360     2.3300 hc         1 AEE       0.046033
     59 HAB2         5.9670     0.1630     2.8290 hc         1 AEE       0.046033
     60 HAB3         7.3320     1.1450     2.2920 hc         1 AEE       0.046033
     61 HAG          7.9370     0.1030    -1.2470 ha         1 AEE       0.114000
     62 HAD          8.7370     1.7390    -2.9070 ha         1 AEE       0.114000
     63 HAC          7.7930     4.0270    -2.9510 ha         1 AEE       0.114000
     64 HAE          6.0490     4.6640    -1.3130 ha         1 AEE       0.114000
     65 HAH          5.2680     3.0450     0.3560 ha         1 AEE       0.114000
@<TRIPOS>BOND
     1     1     2 1   
     2     1     8 1   
     3     1    34 1   
     4     1    35 1   
     5     2     3 1   
     6     2    36 1   
     7     2    37 1   
     8     3     4 1   
     9     3     6 1   
    10     4     5 1   
    11     4    38 1   
    12     4    39 1   
    13     5    40 1   
    14     5    41 1   
    15     5    42 1   
    16     6     7 1   
    17     6    43 1   
    18     6    44 1   
    19     7     8 1   
    20     7    45 1   
    21     7    46 1   
    22     8     9 1   
    23     9    10 1   
    24     9    47 1   
    25     9    48 1   
    26    10    11 ar  
    27    10    13 ar  
    28    11    12 ar  
    29    11    49 1   
    30    12    15 ar  
    31    12    50 1   
    32    13    14 ar  
    33    13    51 1   
    34    14    15 ar  
    35    14    52 1   
    36    15    16 1   
    37    16    17 1   
    38    16    18 2   
    39    17    20 1   
    40    17    53 1   
    41    18    19 1   
    42    18    54 1   
    43    19    20 ar  
    44    19    24 ar  
    45    20    21 ar  
    46    21    22 ar  
    47    22    23 ar  
    48    22    55 1   
    49    23    24 ar  
    50    24    25 1   
    51    25    26 1   
    52    25    56 1   
    53    26    27 1   
    54    26    28 1   
    55    26    57 1   
    56    27    58 1   
    57    27    59 1   
    58    27    60 1   
    59    28    29 ar  
    60    28    33 ar  
    61    29    30 ar  
    62    29    61 1   
    63    30    31 ar  
    64    30    62 1   
    65    31    32 ar  
    66    31    63 1   
    67    32    33 ar  
    68    32    64 1   
    69    33    65 1   
@<TRIPOS>SUBSTRUCTURE
     1 AEE         1 TEMP              0 ****  ****    0 ROOT
