@<TRIPOS>MOLECULE
AEE
   65    69     1     0     0
SMALL
No Charge or Current Charge


@<TRIPOS>ATOM
      1 CAQ         -7.0980     0.0780    -1.2660 c6         1 AEE       0.164800
      2 CAO         -8.0890     0.4840    -0.1280 c6         1 AEE       0.164800
      3 NBF         -7.6650     1.7290     0.5850 n3         1 AEE      -0.720600
      4 CAN         -8.6320     2.1250     1.6380 c3         1 AEE       0.169800
      5 CAA         -8.3620     3.5050     2.2710 c3         1 AEE      -0.090100
      6 CAP         -6.2590     1.5700     1.0800 c6         1 AEE       0.164800
      7 CAR         -5.2660     1.1570    -0.0550 c6         1 AEE       0.164800
      8 NBG         -5.6980    -0.0850    -0.7700 n3         1 AEE      -0.724600
      9 CAS         -4.7610    -0.5000    -1.8400 c3         1 AEE       0.215100
     10 CAX         -3.3590    -0.8220    -1.3280 ca         1 AEE      -0.081300
     11 CAI         -3.1410    -1.9520    -0.5200 ca         1 AEE      -0.094000
     12 CAK         -1.8520    -2.2510    -0.0460 ca         1 AEE      -0.105500
     13 CAJ         -2.2690     0.0050    -1.6570 ca         1 AEE      -0.094000
     14 CAL         -0.9790    -0.2940    -1.1820 ca         1 AEE      -0.105500
     15 CAY         -0.7540    -1.4260    -0.3680 ca         1 AEE      -0.028800
     16 CBA          0.5830    -1.7600     0.1390 cc         1 AEE      -0.024300
     17 NAW          1.0080    -2.9230     0.8080 na         1 AEE      -0.309400
     18 CAM          1.6970    -0.9400     0.0820 cd         1 AEE      -0.187200
     19 C5           2.8100    -1.6150     0.7120 ca         1 AEE      -0.262800
     20 C4           2.3500    -2.8340     1.1470 ca         1 AEE       0.152500
     21 N3           3.1610    -3.7000     1.7810 nb         1 AEE      -0.234000
     22 C2           4.4410    -3.2860     1.9530 ca         1 AEE       0.180900
     23 N1           4.9760    -2.1050     1.5570 nb         1 AEE      -0.306000
     24 C6           4.1440    -1.2520     0.9270 ca         1 AEE       0.437900
     25 NAV          4.6400    -0.0320     0.4930 nu         1 AEE      -0.923100
     26 CBE          5.9820     0.5240     0.6940 c3         1 AEE       0.292800
     27 CAB          6.1440     1.0280     2.1440 c3         1 AEE      -0.106100
     28 CAZ          6.2210     1.6260    -0.3390 ca         1 AEE      -0.104300
     29 CAG          7.1700     1.4330    -1.3650 ca         1 AEE      -0.099000
     30 CAD          7.3990     2.4360    -2.3240 ca         1 AEE      -0.111000
     31 CAC          6.6810     3.6410    -2.2680 ca         1 AEE      -0.103000
     32 CAE          5.7300     3.8420    -1.2540 ca         1 AEE      -0.111000
     33 CAH          5.5000     2.8400    -0.2950 ca         1 AEE      -0.099000
     34 HAQ1        -7.4520    -0.8590    -1.7200 h1         1 AEE       0.039200
     35 HAQ2        -7.1330     0.8480    -2.0520 h1         1 AEE       0.039200
     36 HAO1        -8.1640    -0.3510     0.5830 h1         1 AEE       0.037700
     37 HAO2        -9.0870     0.6200    -0.5690 h1         1 AEE       0.037700
     38 HAN1        -8.6500     1.3710     2.4360 h1         1 AEE       0.028200
     39 HAN2        -9.6410     2.1560     1.2040 h1         1 AEE       0.028200
     40 HAA1        -8.2900     4.2780     1.4970 hc         1 AEE       0.037367
     41 HAA2        -9.1820     3.7740     2.9470 hc         1 AEE       0.037367
     42 HAA3        -7.4350     3.5030     2.8540 hc         1 AEE       0.037367
     43 HAP1        -5.8930     2.5070     1.5220 h1         1 AEE       0.037700
     44 HAP2        -6.2220     0.8060     1.8710 h1         1 AEE       0.037700
     45 HAR1        -4.2720     1.0180     0.3930 h1         1 AEE       0.039200
     46 HAR2        -5.1830     1.9920    -0.7660 h1         1 AEE       0.039200
     47 HAS1        -5.1490    -1.3980    -2.3420 h1         1 AEE       0.039200
     48 HAS2        -4.6940     0.2850    -2.6060 h1         1 AEE       0.039200
     49 HAI         -3.9770    -2.5970    -0.2560 ha         1 AEE       0.121000
     50 HAK         -1.7150    -3.1290     0.5800 ha         1 AEE       0.112500
     51 HAJ         -2.4190     0.8830    -2.2820 ha         1 AEE       0.121000
     52 HAL         -0.1600     0.3610    -1.4630 ha         1 AEE       0.112500
     53 HAW          0.4230    -3.7230     1.0160 hn         1 AEE       0.362000
     54 HAM          1.7250     0.0580    -0.3460 ha         1 AEE       0.201000
     55 H2           5.1100    -3.9770     2.4640 h5         1 AEE       0.042100
     56 HAV          3.9870     0.5330    -0.0440 hn         1 AEE       0.498000
     57 HBE          6.7320    -0.2640     0.5260 h1         1 AEE       0.081700
     58 HAB1         5.3790     1.7700     2.3980 hc         1 AEE       0.046033
     59 HAB2         6.0630     0.1980     2.8550 hc         1 AEE       0.046033
     60 HAB3         7.1290     1.4890     2.2760 hc         1 AEE       0.046033
     61 HAG          7.7330     0.5030    -1.4220 ha         1 AEE       0.114000
     62 HAD          8.1340     2.2770    -3.1100 ha         1 AEE       0.114000
     63 HAC          6.8580     4.4160    -3.0100 ha         1 AEE       0.114000
     64 HAE          5.1700     4.7730    -1.2120 ha         1 AEE       0.114000
     65 HAH          4.7560     3.0100     0.4810 ha         1 AEE       0.114000
@<TRIPOS>BOND
     1     1     2 1   
     2     1     8 1   
     3     1    34 1   
     4     1    35 1   
     5     2     3 1   
     6     2    36 1   
     7     2    37 1   
     8     3     4 1   
     9     3     6 1   
    10     4     5 1   
    11     4    38 1   
    12     4    39 1   
    13     5    40 1   
    14     5    41 1   
    15     5    42 1   
    16     6     7 1   
    17     6    43 1   
    18     6    44 1   
    19     7     8 1   
    20     7    45 1   
    21     7    46 1   
    22     8     9 1   
    23     9    10 1   
    24     9    47 1   
    25     9    48 1   
    26    10    11 ar  
    27    10    13 ar  
    28    11    12 ar  
    29    11    49 1   
    30    12    15 ar  
    31    12    50 1   
    32    13    14 ar  
    33    13    51 1   
    34    14    15 ar  
    35    14    52 1   
    36    15    16 1   
    37    16    17 1   
    38    16    18 2   
    39    17    20 1   
    40    17    53 1   
    41    18    19 1   
    42    18    54 1   
    43    19    20 ar  
    44    19    24 ar  
    45    20    21 ar  
    46    21    22 ar  
    47    22    23 ar  
    48    22    55 1   
    49    23    24 ar  
    50    24    25 1   
    51    25    26 1   
    52    25    56 1   
    53    26    27 1   
    54    26    28 1   
    55    26    57 1   
    56    27    58 1   
    57    27    59 1   
    58    27    60 1   
    59    28    29 ar  
    60    28    33 ar  
    61    29    30 ar  
    62    29    61 1   
    63    30    31 ar  
    64    30    62 1   
    65    31    32 ar  
    66    31    63 1   
    67    32    33 ar  
    68    32    64 1   
    69    33    65 1   
@<TRIPOS>SUBSTRUCTURE
     1 AEE         1 TEMP              0 ****  ****    0 ROOT
