@<TRIPOS>MOLECULE
AEF
   21    21     1     0     0
SMALL
abcg2


@<TRIPOS>ATOM
      1 C4          -1.9190     0.0410    -0.7090 c3         1 AEF      -0.027100
      2 C5           1.6140     1.2850    -0.0260 ca         1 AEF      -0.174000
      3 C6           1.6020    -1.1100     0.1620 ca         1 AEF      -0.174000
      4 C7          -2.7610    -0.0450     0.5620 c3         1 AEF       0.150800
      5 C8           2.2930     0.0970     0.2290 ca         1 AEF       0.136100
      6 O10          3.6080     0.1710     0.5280 oh         1 AEF      -0.535100
      7 C3           0.2510    -1.1180    -0.1550 ca         1 AEF      -0.068500
      8 C2           0.2640     1.2560    -0.3410 ca         1 AEF      -0.068500
      9 C1          -0.4460     0.0590    -0.4120 ca         1 AEF      -0.117300
     10 N9          -4.1790    -0.0540     0.2410 n8         1 AEF      -1.000200
     11 H4          -2.1570    -0.8100    -1.3560 hc         1 AEF       0.052700
     12 H4A         -2.2050     0.9410    -1.2570 hc         1 AEF       0.052700
     13 H5           2.1440     2.2290     0.0210 ha         1 AEF       0.119500
     14 H6           2.1150    -2.0460     0.3550 ha         1 AEF       0.119500
     15 H7          -2.4340    -0.9170     1.1460 h1         1 AEF       0.029700
     16 H7A         -2.5560     0.8320     1.1820 h1         1 AEF       0.029700
     17 HO10         3.9620    -0.7090     0.7000 ho         1 AEF       0.463000
     18 H3          -0.2670    -2.0690    -0.2080 ha         1 AEF       0.112000
     19 H2          -0.2470     2.1920    -0.5390 ha         1 AEF       0.112000
     20 HN9         -4.4240    -0.9410    -0.1820 hn         1 AEF       0.392000
     21 HN9A        -4.7200    -0.0020     1.0950 hn         1 AEF       0.392000
@<TRIPOS>BOND
     1     1     4 1   
     2     1     9 1   
     3     1    11 1   
     4     1    12 1   
     5     2     5 ar  
     6     2     8 ar  
     7     2    13 1   
     8     3     5 ar  
     9     3     7 ar  
    10     3    14 1   
    11     4    10 1   
    12     4    15 1   
    13     4    16 1   
    14     5     6 1   
    15     6    17 1   
    16     7     9 ar  
    17     7    18 1   
    18     8     9 ar  
    19     8    19 1   
    20    10    20 1   
    21    10    21 1   
@<TRIPOS>SUBSTRUCTURE
     1 AEF         1 TEMP              0 ****  ****    0 ROOT
