@<TRIPOS>MOLECULE
AEF
   21    21     1     0     0
SMALL
No Charge or Current Charge


@<TRIPOS>ATOM
      1 C4          -1.9150    -0.0170    -0.7160 c3         1 AEF      -0.027100
      2 C5           1.6100     1.3080     0.0260 ca         1 AEF      -0.174000
      3 C6           1.6660    -1.1200     0.1230 ca         1 AEF      -0.174000
      4 C7          -2.7890     0.0400     0.5550 c3         1 AEF       0.150800
      5 C8           2.3220     0.1170     0.2270 ca         1 AEF       0.136100
      6 O10          3.6510     0.1670     0.5230 oh         1 AEF      -0.535100
      7 C3           0.2940    -1.1640    -0.1840 ca         1 AEF      -0.068500
      8 C2           0.2380     1.2670    -0.2800 ca         1 AEF      -0.068500
      9 C1          -0.4270     0.0290    -0.3880 ca         1 AEF      -0.117300
     10 N9          -4.2320    -0.0020     0.2380 n8         1 AEF      -1.000200
     11 H4          -2.1480    -0.9320    -1.2740 hc         1 AEF       0.052700
     12 H4A         -2.1800     0.8200    -1.3730 hc         1 AEF       0.052700
     13 H5           2.1180     2.2650     0.1080 ha         1 AEF       0.119500
     14 H6           2.2100    -2.0490     0.2780 ha         1 AEF       0.119500
     15 H7          -2.5460    -0.8090     1.2080 h1         1 AEF       0.029700
     16 H7A         -2.5780     0.9690     1.1030 h1         1 AEF       0.029700
     17 HO10         3.9800    -0.7510     0.6290 ho         1 AEF       0.463000
     18 H3          -0.2090    -2.1260    -0.2610 ha         1 AEF       0.112000
     19 H2          -0.3070     2.1960    -0.4330 ha         1 AEF       0.112000
     20 HN9         -4.4540    -0.9100    -0.1900 hn         1 AEF       0.392000
     21 HN9A        -4.7660    -0.0150     1.1170 hn         1 AEF       0.392000
@<TRIPOS>BOND
     1     1     4 1   
     2     1     9 1   
     3     1    11 1   
     4     1    12 1   
     5     2     5 ar  
     6     2     8 ar  
     7     2    13 1   
     8     3     5 ar  
     9     3     7 ar  
    10     3    14 1   
    11     4    10 1   
    12     4    15 1   
    13     4    16 1   
    14     5     6 1   
    15     6    17 1   
    16     7     9 ar  
    17     7    18 1   
    18     8     9 ar  
    19     8    19 1   
    20    10    20 1   
    21    10    21 1   
@<TRIPOS>SUBSTRUCTURE
     1 AEF         1 TEMP              0 ****  ****    0 ROOT
