@<TRIPOS>MOLECULE
AEG
   24    24     1     0     0
SMALL
No Charge or Current Charge


@<TRIPOS>ATOM
      1 C4          -1.6260     0.3970    -0.8520 c3         1 AEG      -0.024100
      2 C5           1.8940     0.9510     0.5860 ca         1 AEG      -0.176500
      3 C6           1.9020    -1.1200    -0.6850 ca         1 AEG      -0.176500
      4 C7          -2.5690     0.2020     0.3630 c3         1 AEG       0.168500
      5 C8           2.5760    -0.1780     0.1050 ca         1 AEG       0.136100
      6 O11          3.8930    -0.3630     0.4010 oh         1 AEG      -0.535100
      7 C3           0.5430    -0.9380    -0.9960 ca         1 AEG      -0.069000
      8 C2           0.5340     1.1360     0.2760 ca         1 AEG      -0.069000
      9 C1          -0.1490     0.1910    -0.5150 ca         1 AEG      -0.119300
     10 N10         -2.4310    -1.1490     0.9300 n8         1 AEG      -1.001200
     11 C9          -4.0450     0.4850     0.0170 c3         1 AEG      -0.091100
     12 H4          -1.9340    -0.2810    -1.6580 hc         1 AEG       0.052700
     13 H4A         -1.7660     1.4120    -1.2460 hc         1 AEG       0.052700
     14 H6           2.4310    -1.9940    -1.0570 ha         1 AEG       0.119500
     15 H7          -2.2610     0.9110     1.1430 h1         1 AEG       0.012700
     16 HO11         4.1940     0.3880     0.9560 ho         1 AEG       0.463000
     17 H3           0.0300    -1.6760    -1.6100 ha         1 AEG       0.115500
     18 H2           0.0120     2.0140     0.6510 ha         1 AEG       0.115500
     19 HN10        -1.4320    -1.3300     1.0770 hn         1 AEG       0.395500
     20 HN1A        -2.8200    -1.1520     1.8790 hn         1 AEG       0.395500
     21 H9          -4.6820     0.3700     0.9030 hc         1 AEG       0.038033
     22 H9A         -4.1630     1.5110    -0.3510 hc         1 AEG       0.038033
     23 H9B         -4.4050    -0.2010    -0.7590 hc         1 AEG       0.038033
     24 H5           2.4080     1.6880     1.1980 ha         1 AEG       0.119500
@<TRIPOS>BOND
     1     1     4 1   
     2     1     9 1   
     3     1    12 1   
     4     1    13 1   
     5     2     5 ar  
     6     2     8 ar  
     7     2    24 1   
     8     3     5 ar  
     9     3     7 ar  
    10     3    14 1   
    11     4    10 1   
    12     4    11 1   
    13     4    15 1   
    14     5     6 1   
    15     6    16 1   
    16     7     9 ar  
    17     7    17 1   
    18     8     9 ar  
    19     8    18 1   
    20    10    19 1   
    21    10    20 1   
    22    11    21 1   
    23    11    22 1   
    24    11    23 1   
@<TRIPOS>SUBSTRUCTURE
     1 AEG         1 TEMP              0 ****  ****    0 ROOT
