@<TRIPOS>MOLECULE
AEG
   24    24     1     0     0
SMALL
abcg2


@<TRIPOS>ATOM
      1 C4          -1.6180     0.4690    -0.7980 c3         1 AEG      -0.024100
      2 C5           1.9150     1.0160     0.5020 ca         1 AEG      -0.176500
      3 C6           1.8320    -1.1330    -0.5670 ca         1 AEG      -0.176500
      4 C7          -2.5340     0.1760     0.3950 c3         1 AEG       0.168500
      5 C8           2.5530    -0.1610     0.1210 ca         1 AEG       0.136100
      6 O11          3.8540    -0.4060     0.3880 oh         1 AEG      -0.535100
      7 C3           0.4940    -0.9210    -0.8660 ca         1 AEG      -0.069000
      8 C2           0.5770     1.2110     0.1920 ca         1 AEG      -0.069000
      9 C1          -0.1620     0.2520    -0.4980 ca         1 AEG      -0.119300
     10 N10         -2.3960    -1.2200     0.7870 n8         1 AEG      -1.001200
     11 C9          -3.9840     0.4570     0.0320 c3         1 AEG      -0.091100
     12 H4          -1.9280    -0.1640    -1.6360 hc         1 AEG       0.052700
     13 H4A         -1.7820     1.5050    -1.1070 hc         1 AEG       0.052700
     14 H6           2.3210    -2.0510    -0.8710 ha         1 AEG       0.119500
     15 H7          -2.2490     0.8680     1.2040 h1         1 AEG       0.012700
     16 HO11         4.2500     0.3480     0.8380 ho         1 AEG       0.463000
     17 H3          -0.0490    -1.6890    -1.4030 ha         1 AEG       0.115500
     18 H2           0.1010     2.1370     0.4940 ha         1 AEG       0.115500
     19 HN10        -1.4540    -1.3910     1.1150 hn         1 AEG       0.395500
     20 HN1A        -2.9990    -1.4060     1.5790 hn         1 AEG       0.395500
     21 H9          -4.6470     0.2630     0.8770 hc         1 AEG       0.038033
     22 H9A         -4.1170     1.4990    -0.2600 hc         1 AEG       0.038033
     23 H9B         -4.3040    -0.1730    -0.7990 hc         1 AEG       0.038033
     24 H5           2.4600     1.7860     1.0380 ha         1 AEG       0.119500
@<TRIPOS>BOND
     1     1     4 1   
     2     1     9 1   
     3     1    12 1   
     4     1    13 1   
     5     2     5 ar  
     6     2     8 ar  
     7     2    24 1   
     8     3     5 ar  
     9     3     7 ar  
    10     3    14 1   
    11     4    10 1   
    12     4    11 1   
    13     4    15 1   
    14     5     6 1   
    15     6    16 1   
    16     7     9 ar  
    17     7    17 1   
    18     8     9 ar  
    19     8    18 1   
    20    10    19 1   
    21    10    20 1   
    22    11    21 1   
    23    11    22 1   
    24    11    23 1   
@<TRIPOS>SUBSTRUCTURE
     1 AEG         1 TEMP              0 ****  ****    0 ROOT
