@<TRIPOS>MOLECULE
AEH
   27    27     1     0     0
SMALL
abcg2


@<TRIPOS>ATOM
      1 C4           2.3330    -1.4090     0.5620 c3         1 AEH      -0.032100
      2 C5          -1.0120     0.4200     0.4800 ca         1 AEH      -0.116300
      3 C6           0.7240     1.9610    -0.1920 ca         1 AEH      -0.145000
      4 C8           2.7440    -2.0240    -0.7770 c3         1 AEH      -0.092100
      5 C10         -2.4610     0.0920     0.7100 c3         1 AEH      -0.027100
      6 N12         -4.5180    -0.8040    -0.2800 n8         1 AEH      -0.998200
      7 C3           1.6920     0.9770    -0.0170 ca         1 AEH       0.143100
      8 C9          -0.6110     1.6810     0.0510 ca         1 AEH      -0.073000
      9 C11         -3.1270    -0.4680    -0.5450 c3         1 AEH       0.148800
     10 C2          -0.0270    -0.5470     0.6490 ca         1 AEH      -0.065000
     11 C1           1.3220    -0.3030     0.4090 ca         1 AEH      -0.167300
     12 H4           1.9050    -2.1890     1.1940 hc         1 AEH       0.044200
     13 H4A          3.2230    -1.0640     1.0990 hc         1 AEH       0.044200
     14 H6           1.0260     2.9500    -0.5150 ha         1 AEH       0.127000
     15 H8           3.4560    -2.8350    -0.6280 hc         1 AEH       0.037033
     16 H8A          1.8760    -2.4300    -1.2970 hc         1 AEH       0.037033
     17 H8B          3.2110    -1.2930    -1.4380 hc         1 AEH       0.037033
     18 H10         -2.5610    -0.6380     1.5170 hc         1 AEH       0.052200
     19 H10A        -2.9990     0.9900     1.0270 hc         1 AEH       0.052200
     20 HN12        -5.0350     0.0460    -0.0890 hn         1 AEH       0.391000
     21 HN1A        -4.9380    -1.1920    -1.1150 hn         1 AEH       0.391000
     22 HO7          3.5820     0.6230    -0.0240 ho         1 AEH       0.466000
     23 H9          -1.3480     2.4640    -0.0890 ha         1 AEH       0.112000
     24 H11         -2.9930     0.2520    -1.3660 h1         1 AEH       0.031200
     25 H11A        -2.6020    -1.3790    -0.8470 h1         1 AEH       0.031200
     26 H2          -0.3160    -1.5380     0.9850 ha         1 AEH       0.111000
     27 O7           2.9740     1.3260    -0.2770 oh         1 AEH      -0.541100
@<TRIPOS>BOND
     1     1     4 1   
     2     1    11 1   
     3     1    12 1   
     4     1    13 1   
     5     2     5 1   
     6     2     8 ar  
     7     2    10 ar  
     8     3     7 ar  
     9     3     8 ar  
    10     3    14 1   
    11     4    15 1   
    12     4    16 1   
    13     4    17 1   
    14     5     9 1   
    15     5    18 1   
    16     5    19 1   
    17     6     9 1   
    18     6    20 1   
    19     6    21 1   
    20     7    11 ar  
    21     7    27 1   
    22     8    23 1   
    23     9    24 1   
    24     9    25 1   
    25    10    11 ar  
    26    10    26 1   
    27    22    27 1   
@<TRIPOS>SUBSTRUCTURE
     1 AEH         1 TEMP              0 ****  ****    0 ROOT
