@<TRIPOS>MOLECULE
AEH
   27    27     1     0     0
SMALL
No Charge or Current Charge


@<TRIPOS>ATOM
      1 C4           2.3730    -1.3960     0.5600 c3         1 AEH      -0.032100
      2 C5          -0.9980     0.4410     0.4670 ca         1 AEH      -0.116300
      3 C6           0.7430     2.0330    -0.1340 ca         1 AEH      -0.145000
      4 C8           2.7250    -2.0740    -0.7780 c3         1 AEH      -0.092100
      5 C10         -2.4670     0.1130     0.7070 c3         1 AEH      -0.027100
      6 N12         -4.5540    -0.8380    -0.3030 n8         1 AEH      -0.998200
      7 C3           1.7190     1.0350     0.0120 ca         1 AEH       0.143100
      8 C9          -0.6110     1.7400     0.0920 ca         1 AEH      -0.073000
      9 C11         -3.1300    -0.5200    -0.5350 c3         1 AEH       0.148800
     10 C2          -0.0170    -0.5590     0.6130 ca         1 AEH      -0.065000
     11 C1           1.3460    -0.2750     0.3900 ca         1 AEH      -0.167300
     12 H4           1.9850    -2.1620     1.2440 hc         1 AEH       0.044200
     13 H4A          3.2890    -1.0220     1.0320 hc         1 AEH       0.044200
     14 H6           1.0370     3.0380    -0.4260 ha         1 AEH       0.127000
     15 H8           3.4540    -2.8780    -0.6190 hc         1 AEH       0.037033
     16 H8A          1.8290    -2.5100    -1.2360 hc         1 AEH       0.037033
     17 H8B          3.1560    -1.3530    -1.4830 hc         1 AEH       0.037033
     18 H10         -2.5610    -0.5760     1.5560 hc         1 AEH       0.052200
     19 H10A        -3.0160     1.0210     0.9870 hc         1 AEH       0.052200
     20 HN12        -5.0710     0.0360    -0.1470 hn         1 AEH       0.391000
     21 HN1A        -4.9610    -1.2040    -1.1730 hn         1 AEH       0.391000
     22 HO7          3.5580     0.5420    -0.1050 ho         1 AEH       0.466000
     23 H9          -1.3580     2.5220    -0.0270 ha         1 AEH       0.112000
     24 H11         -3.0560     0.1740    -1.3840 h1         1 AEH       0.031200
     25 H11A        -2.6020    -1.4460    -0.7990 h1         1 AEH       0.031200
     26 H2          -0.3190    -1.5650     0.8990 ha         1 AEH       0.111000
     27 O7           3.0240     1.3540    -0.2220 oh         1 AEH      -0.541100
@<TRIPOS>BOND
     1     1     4 1   
     2     1    11 1   
     3     1    12 1   
     4     1    13 1   
     5     2     5 1   
     6     2     8 ar  
     7     2    10 ar  
     8     3     7 ar  
     9     3     8 ar  
    10     3    14 1   
    11     4    15 1   
    12     4    16 1   
    13     4    17 1   
    14     5     9 1   
    15     5    18 1   
    16     5    19 1   
    17     6     9 1   
    18     6    20 1   
    19     6    21 1   
    20     7    11 ar  
    21     7    27 1   
    22     8    23 1   
    23     9    24 1   
    24     9    25 1   
    25    10    11 ar  
    26    10    26 1   
    27    22    27 1   
@<TRIPOS>SUBSTRUCTURE
     1 AEH         1 TEMP              0 ****  ****    0 ROOT
