@<TRIPOS>MOLECULE
AEI
   28    27     1     0     0
SMALL
bcc


@<TRIPOS>ATOM
      1 N           29.4060    69.8470    23.8570 n8         1 AEI      -0.879800
      2 CA          28.1960    70.3440    24.4980 c3         1 AEI       0.033500
      3 C           28.5400    71.4670    25.5140 c          1 AEI       0.929600
      4 O           27.9310    72.5450    25.3690 o          1 AEI      -0.846800
      5 OXT         29.3780    71.1880    26.3920 o          1 AEI      -0.846800
      6 CB          27.5170    69.1920    25.2300 c3         1 AEI       0.167100
      7 CG2         26.3320    69.6070    26.0840 c3         1 AEI      -0.094100
      8 OG1         27.0380    68.2870    24.2140 os         1 AEI      -0.439900
      9 CD          27.1720    66.9730    24.3550 c          1 AEI       0.695100
     10 OE1         27.6560    66.4460    25.3290 o          1 AEI      -0.591000
     11 CE2         26.5200    66.2250    23.2240 c3         1 AEI      -0.102400
     12 CZ          26.8650    66.7030    21.8150 c3         1 AEI       0.009500
     13 NH1         26.0040    66.0140    20.8620 n8         1 AEI      -0.889800
     14 CH2         28.3860    66.5870    21.5450 c          1 AEI       0.899600
     15 OT1         29.1320    66.8400    22.5190 o          1 AEI      -0.832800
     16 OT2         28.7430    66.2880    20.3930 o          1 AEI      -0.832800
     17 H           29.1860    69.0720    23.2400 hn         1 AEI       0.336800
     18 H2          29.7980    70.5710    23.2680 hn         1 AEI       0.336800
     19 HA          27.4670    70.7550    23.7820 h1         1 AEI       0.003700
     20 HB          28.2630    68.6890    25.8480 h1         1 AEI       0.089700
     21 HG21        25.8330    68.7330    26.5020 hc         1 AEI       0.027033
     22 HG22        26.6590    70.2220    26.9210 hc         1 AEI       0.027033
     23 HG23        25.6000    70.1750    25.5080 hc         1 AEI       0.027033
     24 HE22        26.7690    65.1670    23.3340 hc         1 AEI       0.036200
     25 HE23        25.4380    66.3090    23.3680 hc         1 AEI       0.036200
     26 HZ          26.6150    67.7690    21.7470 h1         1 AEI       0.062700
     27 HH11        26.2900    66.2920    19.9310 hn         1 AEI       0.319800
     28 HH12        26.2130    65.0210    20.8990 hn         1 AEI       0.319800
@<TRIPOS>BOND
     1     1     2 1   
     2     1    17 1   
     3     1    18 1   
     4     2     3 1   
     5     2     6 1   
     6     2    19 1   
     7     3     4 1   
     8     3     5 1   
     9     6     7 1   
    10     6     8 1   
    11     6    20 1   
    12     7    21 1   
    13     7    22 1   
    14     7    23 1   
    15     8     9 1   
    16     9    10 2   
    17     9    11 1   
    18    11    12 1   
    19    11    24 1   
    20    11    25 1   
    21    12    13 1   
    22    12    14 1   
    23    12    26 1   
    24    13    27 1   
    25    13    28 1   
    26    14    15 1   
    27    14    16 1   
@<TRIPOS>SUBSTRUCTURE
     1 AEI         1 TEMP              0 ****  ****    0 ROOT
