@<TRIPOS>MOLECULE
AEI
   28    27     1     0     0
SMALL
No Charge or Current Charge


@<TRIPOS>ATOM
      1 N           28.6110    70.7860    23.4180 n8         1 AEI      -0.879800
      2 CA          27.8770    70.7330    24.7460 c3         1 AEI       0.033500
      3 C           28.4930    71.5920    25.9330 c          1 AEI       0.929600
      4 O           28.0040    72.6910    26.1770 o          1 AEI      -0.846800
      5 OXT         29.4710    71.1650    26.5420 o          1 AEI      -0.846800
      6 CB          27.6310    69.2630    25.2040 c3         1 AEI       0.167100
      7 CG2         26.6710    69.1530    26.4170 c3         1 AEI      -0.094100
      8 OG1         27.0250    68.5570    24.0950 os         1 AEI      -0.439900
      9 CD          27.0710    67.1850    24.0670 c          1 AEI       0.695100
     10 OE1         27.6690    66.4930    24.8830 o          1 AEI      -0.591000
     11 CE2         26.3420    66.6160    22.8440 c3         1 AEI      -0.102400
     12 CZ          27.3110    66.4420    21.6450 c3         1 AEI       0.009500
     13 NH1         26.5100    66.1720    20.3900 n8         1 AEI      -0.889800
     14 CH2         28.4720    65.4090    21.9860 c          1 AEI       0.899600
     15 OT1         29.6270    65.8190    22.0130 o          1 AEI      -0.832800
     16 OT2         28.1960    64.2160    22.0670 o          1 AEI      -0.832800
     17 H           28.1020    70.2030    22.7460 hn         1 AEI       0.336800
     18 H2          28.5520    71.7360    23.0360 hn         1 AEI       0.336800
     19 HA          26.8860    71.1620    24.5420 h1         1 AEI       0.003700
     20 HB          28.6030    68.8200    25.4660 h1         1 AEI       0.089700
     21 HG21        26.5060    68.1070    26.7010 hc         1 AEI       0.027033
     22 HG22        27.0830    69.6670    27.2920 hc         1 AEI       0.027033
     23 HG23        25.6990    69.6030    26.1830 hc         1 AEI       0.027033
     24 HE22        25.8980    65.6460    23.0970 hc         1 AEI       0.036200
     25 HE23        25.5640    67.3270    22.5390 hc         1 AEI       0.036200
     26 HZ          27.8080    67.4100    21.4910 h1         1 AEI       0.062700
     27 HH11        27.1450    66.1320    19.5850 hn         1 AEI       0.319800
     28 HH12        26.1200    65.2240    20.4450 hn         1 AEI       0.319800
@<TRIPOS>BOND
     1     1     2 1   
     2     1    17 1   
     3     1    18 1   
     4     2     3 1   
     5     2     6 1   
     6     2    19 1   
     7     3     4 1   
     8     3     5 1   
     9     6     7 1   
    10     6     8 1   
    11     6    20 1   
    12     7    21 1   
    13     7    22 1   
    14     7    23 1   
    15     8     9 1   
    16     9    10 2   
    17     9    11 1   
    18    11    12 1   
    19    11    24 1   
    20    11    25 1   
    21    12    13 1   
    22    12    14 1   
    23    12    26 1   
    24    13    27 1   
    25    13    28 1   
    26    14    15 1   
    27    14    16 1   
@<TRIPOS>SUBSTRUCTURE
     1 AEI         1 TEMP              0 ****  ****    0 ROOT
