@<TRIPOS>MOLECULE
AEJ
   66    71     1     0     0
SMALL
No Charge or Current Charge


@<TRIPOS>ATOM
      1 O42         -5.2160     5.1070     0.7080 oh         1 AEJ      -0.535100
      2 C39         -4.6710     3.8980     0.3960 ca         1 AEJ       0.140100
      3 C37         -3.6590     3.8110    -0.5690 ca         1 AEJ      -0.208000
      4 C35         -3.0970     2.5610    -0.8860 ca         1 AEJ      -0.057000
      5 C34         -3.5420     1.3900    -0.2370 ca         1 AEJ      -0.115300
      6 C33         -4.5740     1.4850     0.7240 ca         1 AEJ      -0.026300
      7 C40         -5.1280     2.7400     1.0400 ca         1 AEJ      -0.151000
      8 C24         -2.9020     0.0310    -0.6020 c6         1 AEJ       0.304100
      9 N26         -3.3780    -1.1120     0.2290 nh         1 AEJ      -0.766400
     10 C44         -2.7990    -2.3810     0.0300 ca         1 AEJ       0.235000
     11 C45         -1.7320    -2.8040     0.8430 ca         1 AEJ      -0.113000
     12 C47         -1.1390    -4.0640     0.6440 ca         1 AEJ      -0.107000
     13 C49         -1.6160    -4.9100    -0.3720 ca         1 AEJ      -0.115000
     14 C51         -2.6820    -4.4950    -1.1870 ca         1 AEJ      -0.107000
     15 C53         -3.2710    -3.2340    -0.9860 ca         1 AEJ      -0.113000
     16 C27         -4.8130    -1.0360     0.5850 c6         1 AEJ       0.182800
     17 C30         -5.0880     0.2290     1.4200 c6         1 AEJ      -0.035100
     18 C19         -1.3680     0.1130    -0.5650 ca         1 AEJ      -0.118300
     19 C20         -0.6090    -0.2830    -1.6810 ca         1 AEJ      -0.062000
     20 C22          0.7950    -0.2190    -1.6400 ca         1 AEJ      -0.168000
     21 C14          1.4620     0.2390    -0.4890 ca         1 AEJ       0.297000
     22 C15          0.6970     0.6310     0.6280 ca         1 AEJ      -0.168000
     23 C17         -0.7070     0.5700     0.5910 ca         1 AEJ      -0.062000
     24 N7           2.8770     0.2900    -0.4710 nh         1 AEJ      -0.785400
     25 C8           3.6160     1.0480    -1.5310 c6         1 AEJ       0.199800
     26 C11          5.0940     0.5650    -1.6920 c6         1 AEJ       0.159800
     27 N1           5.8500     0.5700    -0.4020 n3         1 AEJ      -0.715600
     28 C2           5.1250    -0.2600     0.6190 c6         1 AEJ       0.173500
     29 C4           3.6390     0.2060     0.8160 c6         1 AEJ       0.195800
     30 C55          5.8800    -0.2440     1.9780 c6         1 AEJ      -0.074400
     31 C58          7.3480    -0.7010     1.8110 c6         1 AEJ      -0.073400
     32 C61          8.0500     0.1390     0.7210 c6         1 AEJ      -0.076400
     33 C64          7.2490     0.1060    -0.6030 c6         1 AEJ       0.168800
     34 H42         -4.7760     5.7920     0.1610 ho         1 AEJ       0.464000
     35 H37         -3.3000     4.7030    -1.0770 ha         1 AEJ       0.113000
     36 H35         -2.3110     2.5040    -1.6370 ha         1 AEJ       0.118000
     37 H40         -5.9170     2.8160     1.7840 ha         1 AEJ       0.126000
     38 H24         -3.1980    -0.1710    -1.6420 h1         1 AEJ       0.036700
     39 H45         -1.3620    -2.1500     1.6270 ha         1 AEJ       0.119000
     40 H47         -0.3130    -4.3820     1.2760 ha         1 AEJ       0.112000
     41 H49         -1.1580    -5.8850    -0.5270 ha         1 AEJ       0.111000
     42 H51         -3.0510    -5.1480    -1.9750 ha         1 AEJ       0.112000
     43 H53         -4.0920    -2.9140    -1.6220 ha         1 AEJ       0.119000
     44 H271        -5.4280    -1.0110    -0.3280 h1         1 AEJ       0.038200
     45 H272        -5.1140    -1.9210     1.1650 h1         1 AEJ       0.038200
     46 H301        -6.1660     0.3110     1.6110 hc         1 AEJ       0.059200
     47 H302        -4.6020     0.1320     2.4000 hc         1 AEJ       0.059200
     48 H20         -1.1040    -0.6500    -2.5780 ha         1 AEJ       0.115500
     49 H22          1.3660    -0.5420    -2.5050 ha         1 AEJ       0.113000
     50 H15          1.1820     0.9950     1.5280 ha         1 AEJ       0.113000
     51 H17         -1.2840     0.8720     1.4620 ha         1 AEJ       0.115500
     52 H81          3.1150     0.9490    -2.5040 h1         1 AEJ       0.044200
     53 H82          3.6220     2.1180    -1.2790 h1         1 AEJ       0.044200
     54 H111         5.0810    -0.4510    -2.1160 h1         1 AEJ       0.038200
     55 H112         5.5930     1.2110    -2.4280 h1         1 AEJ       0.038200
     56 H2           5.0930    -1.3030     0.2690 h1         1 AEJ       0.033700
     57 H41          3.6390     1.1910     1.3070 h1         1 AEJ       0.043200
     58 H42A         3.1450    -0.5010     1.4990 h1         1 AEJ       0.043200
     59 H551         5.3690    -0.8970     2.6980 hc         1 AEJ       0.046700
     60 H552         5.8560     0.7700     2.4020 hc         1 AEJ       0.046700
     61 H581         7.3760    -1.7650     1.5360 hc         1 AEJ       0.040700
     62 H582         7.8840    -0.6070     2.7660 hc         1 AEJ       0.040700
     63 H611         9.0670    -0.2390     0.5500 hc         1 AEJ       0.047200
     64 H612         8.1540     1.1790     1.0600 hc         1 AEJ       0.047200
     65 H641         7.2580    -0.9200    -1.0000 h1         1 AEJ       0.029700
     66 H642         7.7590     0.7430    -1.3410 h1         1 AEJ       0.029700
@<TRIPOS>BOND
     1     1     2 1   
     2     1    34 1   
     3     2     3 ar  
     4     2     7 ar  
     5     3     4 ar  
     6     3    35 1   
     7     4     5 ar  
     8     4    36 1   
     9     5     6 ar  
    10     5     8 1   
    11     6     7 ar  
    12     6    17 1   
    13     7    37 1   
    14     8     9 1   
    15     8    18 1   
    16     8    38 1   
    17     9    10 1   
    18     9    16 1   
    19    10    11 ar  
    20    10    15 ar  
    21    11    12 ar  
    22    11    39 1   
    23    12    13 ar  
    24    12    40 1   
    25    13    14 ar  
    26    13    41 1   
    27    14    15 ar  
    28    14    42 1   
    29    15    43 1   
    30    16    17 1   
    31    16    44 1   
    32    16    45 1   
    33    17    46 1   
    34    17    47 1   
    35    18    19 ar  
    36    18    23 ar  
    37    19    20 ar  
    38    19    48 1   
    39    20    21 ar  
    40    20    49 1   
    41    21    22 ar  
    42    21    24 1   
    43    22    23 ar  
    44    22    50 1   
    45    23    51 1   
    46    24    25 1   
    47    24    29 1   
    48    25    26 1   
    49    25    52 1   
    50    25    53 1   
    51    26    27 1   
    52    26    54 1   
    53    26    55 1   
    54    27    28 1   
    55    27    33 1   
    56    28    29 1   
    57    28    30 1   
    58    28    56 1   
    59    29    57 1   
    60    29    58 1   
    61    30    31 1   
    62    30    59 1   
    63    30    60 1   
    64    31    32 1   
    65    31    61 1   
    66    31    62 1   
    67    32    33 1   
    68    32    63 1   
    69    32    64 1   
    70    33    65 1   
    71    33    66 1   
@<TRIPOS>SUBSTRUCTURE
     1 AEJ         1 TEMP              0 ****  ****    0 ROOT
