@<TRIPOS>MOLECULE
AEJ
   66    71     1     0     0
SMALL
bcc


@<TRIPOS>ATOM
      1 O42         -4.9330     5.0610     0.8840 oh         1 AEJ      -0.496100
      2 C39         -4.4080     3.8690     0.5300 ca         1 AEJ       0.140100
      3 C37         -3.4120     3.7430    -0.4370 ca         1 AEJ      -0.226000
      4 C35         -2.9150     2.4890    -0.7430 ca         1 AEJ      -0.075000
      5 C34         -3.3850     1.3390    -0.1120 ca         1 AEJ      -0.115300
      6 C33         -4.3950     1.4690     0.8380 ca         1 AEJ      -0.026300
      7 C40         -4.8940     2.7290     1.1570 ca         1 AEJ      -0.169000
      8 C24         -2.8080    -0.0080    -0.5090 c6         1 AEJ       0.304100
      9 N26         -3.2800    -1.0730     0.3800 nh         1 AEJ      -0.628000
     10 C44         -2.8480    -2.3610    -0.0460 ca         1 AEJ       0.096600
     11 C45         -1.7050    -2.9140     0.5230 ca         1 AEJ      -0.131000
     12 C47         -1.2510    -4.1630     0.1250 ca         1 AEJ      -0.125000
     13 C49         -1.9390    -4.8810    -0.8440 ca         1 AEJ      -0.133000
     14 C51         -3.0830    -4.3390    -1.4130 ca         1 AEJ      -0.125000
     15 C53         -3.5310    -3.0840    -1.0220 ca         1 AEJ      -0.131000
     16 C27         -4.7060    -0.9810     0.6520 c6         1 AEJ       0.182800
     17 C30         -4.9610     0.2470     1.5010 c6         1 AEJ      -0.035100
     18 C19         -1.2980     0.0240    -0.5140 ca         1 AEJ      -0.118300
     19 C20         -0.5710    -0.3690    -1.6280 ca         1 AEJ      -0.080000
     20 C22          0.8140    -0.3820    -1.6230 ca         1 AEJ      -0.186000
     21 C14          1.5350     0.0090    -0.4870 ca         1 AEJ       0.158600
     22 C15          0.7960     0.4120     0.6340 ca         1 AEJ      -0.186000
     23 C17         -0.5890     0.4090     0.6160 ca         1 AEJ      -0.080000
     24 N7           2.9300    -0.0380    -0.4880 nh         1 AEJ      -0.647000
     25 C8           3.6130     0.5590    -1.6270 c6         1 AEJ       0.199800
     26 C11          5.0630     0.1260    -1.6600 c6         1 AEJ       0.159800
     27 N1           5.7420     0.4650    -0.4280 n3         1 AEJ      -0.715600
     28 C2           5.0800    -0.1630     0.7040 c6         1 AEJ       0.173500
     29 C4           3.6150     0.2490     0.7540 c6         1 AEJ       0.195800
     30 C55          5.7640     0.2230     2.0100 c6         1 AEJ      -0.074400
     31 C58          7.2490    -0.1110     1.9810 c6         1 AEJ      -0.073400
     32 C61          7.8940     0.5240     0.7580 c6         1 AEJ      -0.076400
     33 C64          7.1510     0.1170    -0.5030 c6         1 AEJ       0.168800
     34 H42         -4.5350     5.7680     0.3650 ho         1 AEJ       0.425000
     35 H37         -3.0260     4.6180    -0.9470 ha         1 AEJ       0.131000
     36 H35         -2.1350     2.4070    -1.4900 ha         1 AEJ       0.136000
     37 H40         -5.6810     2.8230     1.8970 ha         1 AEJ       0.144000
     38 H24         -3.1370    -0.2140    -1.5440 h1         1 AEJ       0.036700
     39 H45         -1.1740    -2.3570     1.2840 ha         1 AEJ       0.137000
     40 H47         -0.3610    -4.5800     0.5800 ha         1 AEJ       0.130000
     41 H49         -1.5900    -5.8600    -1.1490 ha         1 AEJ       0.129000
     42 H51         -3.6280    -4.8920    -2.1680 ha         1 AEJ       0.130000
     43 H53         -4.4210    -2.6720    -1.4840 ha         1 AEJ       0.137000
     44 H271        -5.3150    -0.9300    -0.2640 h1         1 AEJ       0.038200
     45 H272        -5.0160    -1.8780     1.1900 h1         1 AEJ       0.038200
     46 H301        -6.0330     0.3710     1.6670 hc         1 AEJ       0.059200
     47 H302        -4.5030     0.1050     2.4840 hc         1 AEJ       0.059200
     48 H20         -1.0950    -0.6970    -2.5190 ha         1 AEJ       0.133500
     49 H22          1.3320    -0.7280    -2.5070 ha         1 AEJ       0.131000
     50 H15          1.2940     0.7470     1.5340 ha         1 AEJ       0.131000
     51 H17         -1.1220     0.7300     1.5040 ha         1 AEJ       0.133500
     52 H81          3.1450     0.2470    -2.5580 h1         1 AEJ       0.044200
     53 H82          3.5560     1.6560    -1.5820 h1         1 AEJ       0.044200
     54 H111         5.1100    -0.9580    -1.8660 h1         1 AEJ       0.038200
     55 H112         5.5590     0.6310    -2.4920 h1         1 AEJ       0.038200
     56 H2           5.1210    -1.2660     0.6040 h1         1 AEJ       0.033700
     57 H41          3.5550     1.3180     1.0160 h1         1 AEJ       0.043200
     58 H42A         3.1440    -0.3100     1.5640 h1         1 AEJ       0.043200
     59 H551         5.2670    -0.2890     2.8380 hc         1 AEJ       0.046700
     60 H552         5.6340     1.2980     2.1740 hc         1 AEJ       0.046700
     61 H581         7.3790    -1.1980     1.9410 hc         1 AEJ       0.040700
     62 H582         7.7340     0.2300     2.8980 hc         1 AEJ       0.040700
     63 H611         8.9430     0.2320     0.6700 hc         1 AEJ       0.047200
     64 H612         7.8720     1.6140     0.8540 hc         1 AEJ       0.047200
     65 H641         7.2850    -0.9670    -0.6700 h1         1 AEJ       0.029700
     66 H642         7.5810     0.6210    -1.3730 h1         1 AEJ       0.029700
@<TRIPOS>BOND
     1     1     2 1   
     2     1    34 1   
     3     2     3 ar  
     4     2     7 ar  
     5     3     4 ar  
     6     3    35 1   
     7     4     5 ar  
     8     4    36 1   
     9     5     6 ar  
    10     5     8 1   
    11     6     7 ar  
    12     6    17 1   
    13     7    37 1   
    14     8     9 1   
    15     8    18 1   
    16     8    38 1   
    17     9    10 1   
    18     9    16 1   
    19    10    11 ar  
    20    10    15 ar  
    21    11    12 ar  
    22    11    39 1   
    23    12    13 ar  
    24    12    40 1   
    25    13    14 ar  
    26    13    41 1   
    27    14    15 ar  
    28    14    42 1   
    29    15    43 1   
    30    16    17 1   
    31    16    44 1   
    32    16    45 1   
    33    17    46 1   
    34    17    47 1   
    35    18    19 ar  
    36    18    23 ar  
    37    19    20 ar  
    38    19    48 1   
    39    20    21 ar  
    40    20    49 1   
    41    21    22 ar  
    42    21    24 1   
    43    22    23 ar  
    44    22    50 1   
    45    23    51 1   
    46    24    25 1   
    47    24    29 1   
    48    25    26 1   
    49    25    52 1   
    50    25    53 1   
    51    26    27 1   
    52    26    54 1   
    53    26    55 1   
    54    27    28 1   
    55    27    33 1   
    56    28    29 1   
    57    28    30 1   
    58    28    56 1   
    59    29    57 1   
    60    29    58 1   
    61    30    31 1   
    62    30    59 1   
    63    30    60 1   
    64    31    32 1   
    65    31    61 1   
    66    31    62 1   
    67    32    33 1   
    68    32    63 1   
    69    32    64 1   
    70    33    65 1   
    71    33    66 1   
@<TRIPOS>SUBSTRUCTURE
     1 AEJ         1 TEMP              0 ****  ****    0 ROOT
