@<TRIPOS>MOLECULE
AEK
   49    52     1     0     0
SMALL
No Charge or Current Charge


@<TRIPOS>ATOM
      1 N1           1.9740     4.5310     0.1310 nu         1 AEK      -0.916400
      2 N3          -2.6410    -0.5820    -0.3090 n7         1 AEK      -0.871400
      3 C4           1.1760    -0.1930    -0.5940 ca         1 AEK      -0.072300
      4 C5          -0.2850    -0.3100    -1.0450 c3         1 AEK      -0.019100
      5 C6          -1.2370    -0.5400     0.1450 c3         1 AEK       0.161800
      6 C7          -3.6390    -0.7650     0.7610 c3         1 AEK       0.166800
      7 C8          -5.0810    -0.8000     0.2020 c5         1 AEK      -0.067700
      8 C10         -7.4780    -0.7770     0.4590 c5         1 AEK      -0.081900
      9 C13          2.0190    -1.3330    -0.4360 ca         1 AEK       0.172400
     10 C15          4.2410    -2.3150     0.1560 c          1 AEK       0.577600
     11 C17          3.8630     0.1620     0.2670 ca         1 AEK      -0.004000
     12 C1           0.7330     5.2920    -0.0800 c3         1 AEK       0.220100
     13 C2           2.1340     3.1960     0.0420 cc         1 AEK       0.676700
     14 N2           1.1560     2.3110    -0.3460 na         1 AEK      -0.357600
     15 C3           1.7200     1.0690    -0.3030 ca         1 AEK      -0.047200
     16 C9          -6.1750    -0.9760     1.2850 c5         1 AEK      -0.071900
     17 C11         -7.0870     0.2390    -0.6630 c5         1 AEK      -0.081900
     18 C12         -5.5750     0.5280    -0.4310 c5         1 AEK      -0.071900
     19 N4           1.4810    -2.6090    -0.7090 nc         1 AEK      -0.627100
     20 C14          2.3430    -3.6130    -0.5330 cd         1 AEK       0.493800
     21 N5           3.6400    -3.4880    -0.1290 ns         1 AEK      -0.435400
     22 C16          3.3610    -1.1340    -0.0070 ca         1 AEK      -0.206600
     23 C18          3.0080     1.2550     0.1110 ca         1 AEK       0.097400
     24 N6           3.2900     2.6040     0.3340 nd         1 AEK      -0.652100
     25 HN3         -2.7400    -1.3620    -0.9700 hn         1 AEK       0.409000
     26 H5          -0.5920     0.6000    -1.5750 hc         1 AEK       0.056700
     27 H5A         -0.4060    -1.1220    -1.7710 hc         1 AEK       0.056700
     28 H6          -1.0980     0.2730     0.8710 h1         1 AEK       0.033200
     29 H6A         -0.9660    -1.4820     0.6430 h1         1 AEK       0.033200
     30 H7          -3.4500    -1.7080     1.2940 h1         1 AEK       0.028700
     31 H7A         -3.5630     0.0490     1.4950 h1         1 AEK       0.028700
     32 H8          -5.1240    -1.6220    -0.5250 hc         1 AEK       0.043700
     33 H10         -7.8130    -1.7250     0.0220 hc         1 AEK       0.040950
     34 H10A        -8.3000    -0.4080     1.0830 hc         1 AEK       0.040950
     35 H17          4.8880     0.3160     0.5970 ha         1 AEK       0.152000
     36 H1          -0.0510     4.9490     0.6080 h1         1 AEK       0.040033
     37 H1A          0.9050     6.3620     0.0970 h1         1 AEK       0.040033
     38 H9          -6.1360    -1.9600     1.7650 hc         1 AEK       0.043700
     39 H9A         -6.0850    -0.2230     2.0780 hc         1 AEK       0.043700
     40 H11         -7.2550    -0.1980    -1.6540 hc         1 AEK       0.040950
     41 H11A        -7.6830     1.1570    -0.6160 hc         1 AEK       0.040950
     42 H12         -5.4310     1.3760     0.2480 hc         1 AEK       0.043700
     43 H12A        -5.0540     0.7690    -1.3650 hc         1 AEK       0.043700
     44 H14          2.0600    -4.6440    -0.7080 h5         1 AEK       0.043800
     45 HN5          4.2120    -4.3140    -0.0270 hn         1 AEK       0.329500
     46 HN2          0.2140     2.5560    -0.6060 hn         1 AEK       0.361000
     47 H23          2.8030     5.0130     0.4750 hn         1 AEK       0.524000
     48 H24          0.3760     5.1650    -1.1110 h1         1 AEK       0.040033
     49 O1           5.4070    -2.2580     0.5160 o          1 AEK      -0.541000
@<TRIPOS>BOND
     1     1    12 1   
     2     1    13 1   
     3     1    47 1   
     4     2     5 1   
     5     2     6 1   
     6     2    25 1   
     7     3     4 1   
     8     3     9 ar  
     9     3    15 ar  
    10     4     5 1   
    11     4    26 1   
    12     4    27 1   
    13     5    28 1   
    14     5    29 1   
    15     6     7 1   
    16     6    30 1   
    17     6    31 1   
    18     7    16 1   
    19     7    18 1   
    20     7    32 1   
    21     8    16 1   
    22     8    17 1   
    23     8    33 1   
    24     8    34 1   
    25     9    19 1   
    26     9    22 ar  
    27    10    21 1   
    28    10    22 1   
    29    10    49 2   
    30    11    22 ar  
    31    11    23 ar  
    32    11    35 1   
    33    12    36 1   
    34    12    37 1   
    35    12    48 1   
    36    13    14 1   
    37    13    24 2   
    38    14    15 1   
    39    14    46 1   
    40    15    23 ar  
    41    16    38 1   
    42    16    39 1   
    43    17    18 1   
    44    17    40 1   
    45    17    41 1   
    46    18    42 1   
    47    18    43 1   
    48    19    20 2   
    49    20    21 1   
    50    20    44 1   
    51    21    45 1   
    52    23    24 1   
@<TRIPOS>SUBSTRUCTURE
     1 AEK         1 TEMP              0 ****  ****    0 ROOT
