@<TRIPOS>MOLECULE
AEK
   49    52     1     0     0
SMALL
abcg2


@<TRIPOS>ATOM
      1 N1           1.6780     4.4920     0.2790 nu         1 AEK      -0.916400
      2 N3          -2.6050    -0.7210    -0.4660 n7         1 AEK      -0.871400
      3 C4           1.1300    -0.1870    -0.6220 ca         1 AEK      -0.072300
      4 C5          -0.2700    -0.3730    -1.1230 c3         1 AEK      -0.019100
      5 C6          -1.2490    -0.6070     0.0270 c3         1 AEK       0.161800
      6 C7          -3.5860    -0.8670     0.5910 c3         1 AEK       0.166800
      7 C8          -4.9940    -1.0030     0.0330 c5         1 AEK      -0.067700
      8 C10         -7.0490     0.0300     0.9180 c5         1 AEK      -0.081900
      9 C13          2.0170    -1.2650    -0.4360 ca         1 AEK       0.172400
     10 C15          4.2030    -2.1910     0.2640 c          1 AEK       0.577600
     11 C17          3.7720     0.2260     0.4300 ca         1 AEK      -0.004000
     12 C1           0.4040     5.0800    -0.0550 c3         1 AEK       0.220100
     13 C2           1.9480     3.1880     0.1870 cc         1 AEK       0.676700
     14 N2           1.0270     2.2930    -0.2860 na         1 AEK      -0.357600
     15 C3           1.6130     1.0510    -0.2570 ca         1 AEK      -0.047200
     16 C9          -6.0620    -1.1230     1.1500 c5         1 AEK      -0.071900
     17 C11         -6.9310     0.3210    -0.5750 c5         1 AEK      -0.081900
     18 C12         -5.4300     0.1990    -0.8220 c5         1 AEK      -0.071900
     19 N4           1.5730    -2.5270    -0.7700 nc         1 AEK      -0.627100
     20 C14          2.3760    -3.5070    -0.5960 cd         1 AEK       0.493800
     21 N5           3.6370    -3.3890    -0.1040 ns         1 AEK      -0.435400
     22 C16          3.3170    -1.0490     0.0820 ca         1 AEK      -0.206600
     23 C18          2.9110     1.2890     0.2600 ca         1 AEK       0.097400
     24 N6           3.0870     2.6230     0.5230 nd         1 AEK      -0.652100
     25 HN3         -2.6660    -1.5250    -1.0810 hn         1 AEK       0.409000
     26 H5          -0.5920     0.5060    -1.6870 hc         1 AEK       0.056700
     27 H5A         -0.3080    -1.2180    -1.8110 hc         1 AEK       0.056700
     28 H6          -1.2040     0.2420     0.7160 h1         1 AEK       0.033200
     29 H6A         -0.9210    -1.4880     0.6000 h1         1 AEK       0.033200
     30 H7          -3.3740    -1.7240     1.2520 h1         1 AEK       0.028700
     31 H7A         -3.5410     0.0250     1.2260 h1         1 AEK       0.028700
     32 H8          -5.0280    -1.9070    -0.5870 hc         1 AEK       0.043700
     33 H10         -8.0650    -0.2110     1.2370 hc         1 AEK       0.040950
     34 H10A        -6.7350     0.9130     1.4830 hc         1 AEK       0.040950
     35 H17          4.7690     0.3690     0.8270 ha         1 AEK       0.152000
     36 H1          -0.4060     4.6900     0.5660 h1         1 AEK       0.040033
     37 H1A          0.4670     6.1500     0.1160 h1         1 AEK       0.040033
     38 H9          -6.5770    -2.0830     1.0820 hc         1 AEK       0.043700
     39 H9A         -5.6160    -1.0820     2.1470 hc         1 AEK       0.043700
     40 H11         -7.4730    -0.4370    -1.1500 hc         1 AEK       0.040950
     41 H11A        -7.3350     1.2940    -0.8610 hc         1 AEK       0.040950
     42 H12         -4.9290     1.1050    -0.4670 hc         1 AEK       0.043700
     43 H12A        -5.1730     0.0840    -1.8750 hc         1 AEK       0.043700
     44 H14          2.0690    -4.5160    -0.8440 h5         1 AEK       0.043800
     45 HN5          4.1920    -4.2270     0.0050 hn         1 AEK       0.329500
     46 HN2          0.0950     2.5060    -0.6030 hn         1 AEK       0.361000
     47 H23          2.4050     5.0760     0.6550 hn         1 AEK       0.524000
     48 H24          0.1450     4.9260    -1.1040 h1         1 AEK       0.040033
     49 O1           5.3430    -2.1420     0.6990 o          1 AEK      -0.541000
@<TRIPOS>BOND
     1     1    12 1   
     2     1    13 1   
     3     1    47 1   
     4     2     5 1   
     5     2     6 1   
     6     2    25 1   
     7     3     4 1   
     8     3     9 ar  
     9     3    15 ar  
    10     4     5 1   
    11     4    26 1   
    12     4    27 1   
    13     5    28 1   
    14     5    29 1   
    15     6     7 1   
    16     6    30 1   
    17     6    31 1   
    18     7    16 1   
    19     7    18 1   
    20     7    32 1   
    21     8    16 1   
    22     8    17 1   
    23     8    33 1   
    24     8    34 1   
    25     9    19 1   
    26     9    22 ar  
    27    10    21 1   
    28    10    22 1   
    29    10    49 2   
    30    11    22 ar  
    31    11    23 ar  
    32    11    35 1   
    33    12    36 1   
    34    12    37 1   
    35    12    48 1   
    36    13    14 1   
    37    13    24 2   
    38    14    15 1   
    39    14    46 1   
    40    15    23 ar  
    41    16    38 1   
    42    16    39 1   
    43    17    18 1   
    44    17    40 1   
    45    17    41 1   
    46    18    42 1   
    47    18    43 1   
    48    19    20 2   
    49    20    21 1   
    50    20    44 1   
    51    21    45 1   
    52    23    24 1   
@<TRIPOS>SUBSTRUCTURE
     1 AEK         1 TEMP              0 ****  ****    0 ROOT
